Version 4 
SHEET 1 2360 680
WIRE -316 16 -300 16
WIRE 316 34 300 34
WIRE 316 -2 300 -2
WIRE -240 480 -224 480
WIRE -240 512 -224 512
WIRE 240 496 224 496
WIRE -316 976 -300 976
WIRE 316 994 300 994
WIRE 316 958 300 958
WIRE -240 1440 -224 1440
WIRE -240 1472 -224 1472
WIRE 240 1456 224 1456
FLAG -316 16 Vin_cb26by10[0:25]
FLAG 316 34 Vout_cb26by10_+[0:4]
FLAG 316 -2 Vout_cb26by10_-[0:4]
FLAG -240 480 Vout_cb26by10_+[0:4]
FLAG -240 512 Vout_cb26by10_-[0:4]
FLAG 240 496 Vin_cb6by2[0:4]
FLAG -316 976 Vin_cb6by2[0:5]
FLAG 316 994 Vout_cb6by2_+[0:0]
FLAG 316 958 Vout_cb6by2_-[0:0]
FLAG -240 1440 Vout_cb6by2_+[0:0]
FLAG -240 1472 Vout_cb6by2_-[0:0]
FLAG 240 1456 h_act_out[0:0]
SYMBOL X_cbar_26by10 0 16 R0
SYMATTR InstName X_cbar_26by10
SYMBOL X_aux_10by5 0 496 R0
SYMATTR InstName X_aux_10by5
SYMBOL X_cbar_6by2 0 976 R0
SYMATTR InstName X_cbar_6by2
SYMBOL X_aux_2by1 0 1456 R0
SYMATTR InstName X_aux_2by1
SYMBOL voltage -1500 0 R0
SYMATTR InstName V0
SYMATTR Value PWL 0.00ns 0.950V 1.00ns 0.950V 2.00ns 0.950V 400.00ns 0.950V 401.00ns 0.950V
FLAG -1500 96 0
WIRE -1500 16 -1500 -48
WIRE -1500 -48 -1452 -48
FLAG -1452 -48 Vin_cb26by10[0]
SYMBOL voltage -1500 192 R0
SYMATTR InstName V1
SYMATTR Value PWL 0.00ns 0.950V 1.00ns 0.950V 2.00ns 0.950V 400.00ns 0.950V 401.00ns 0.950V
FLAG -1500 288 0
WIRE -1500 208 -1500 144
WIRE -1500 144 -1452 144
FLAG -1452 144 Vin_cb26by10[1]
SYMBOL voltage -1500 384 R0
SYMATTR InstName V2
SYMATTR Value PWL 0.00ns 0.950V 1.00ns 0.950V 2.00ns 0.950V 400.00ns 0.950V 401.00ns 0.950V
FLAG -1500 480 0
WIRE -1500 400 -1500 336
WIRE -1500 336 -1452 336
FLAG -1452 336 Vin_cb26by10[2]
SYMBOL voltage -1500 576 R0
SYMATTR InstName V3
SYMATTR Value PWL 0.00ns 0.950V 1.00ns 0.950V 2.00ns 0.950V 400.00ns 0.950V 401.00ns 0.950V
FLAG -1500 672 0
WIRE -1500 592 -1500 528
WIRE -1500 528 -1452 528
FLAG -1452 528 Vin_cb26by10[3]
SYMBOL voltage -1500 768 R0
SYMATTR InstName V4
SYMATTR Value PWL 0.00ns 0.950V 1.00ns 0.950V 2.00ns 0.950V 400.00ns 0.950V 401.00ns 0.950V
FLAG -1500 864 0
WIRE -1500 784 -1500 720
WIRE -1500 720 -1452 720
FLAG -1452 720 Vin_cb26by10[4]
SYMBOL voltage -1500 960 R0
SYMATTR InstName V5
SYMATTR Value PWL 0.00ns 0.950V 1.00ns 0.950V 2.00ns 0.950V 400.00ns 0.950V 401.00ns 0.950V
FLAG -1500 1056 0
WIRE -1500 976 -1500 912
WIRE -1500 912 -1452 912
FLAG -1452 912 Vin_cb26by10[5]
SYMBOL voltage -1500 1152 R0
SYMATTR InstName V6
SYMATTR Value PWL 0.00ns 0.950V 1.00ns 0.950V 2.00ns 0.950V 400.00ns 0.950V 401.00ns 0.950V
FLAG -1500 1248 0
WIRE -1500 1168 -1500 1104
WIRE -1500 1104 -1452 1104
FLAG -1452 1104 Vin_cb26by10[6]
SYMBOL voltage -1500 1344 R0
SYMATTR InstName V7
SYMATTR Value PWL 0.00ns 0.950V 1.00ns 0.950V 2.00ns 0.950V 400.00ns 0.950V 401.00ns 0.950V
FLAG -1500 1440 0
WIRE -1500 1360 -1500 1296
WIRE -1500 1296 -1452 1296
FLAG -1452 1296 Vin_cb26by10[7]
SYMBOL voltage -1500 1536 R0
SYMATTR InstName V8
SYMATTR Value PWL 0.00ns 0.950V 1.00ns 0.950V 2.00ns 0.950V 400.00ns 0.950V 401.00ns 0.950V
FLAG -1500 1632 0
WIRE -1500 1552 -1500 1488
WIRE -1500 1488 -1452 1488
FLAG -1452 1488 Vin_cb26by10[8]
SYMBOL voltage -1500 1728 R0
SYMATTR InstName V9
SYMATTR Value PWL 0.00ns 0.950V 1.00ns 0.950V 2.00ns 0.950V 400.00ns 0.950V 401.00ns 0.950V
FLAG -1500 1824 0
WIRE -1500 1744 -1500 1680
WIRE -1500 1680 -1452 1680
FLAG -1452 1680 Vin_cb26by10[9]
SYMBOL voltage -1500 1920 R0
SYMATTR InstName V10
SYMATTR Value PWL 0.00ns 0.950V 1.00ns 0.950V 2.00ns 0.950V 400.00ns 0.950V 401.00ns 0.950V
FLAG -1500 2016 0
WIRE -1500 1936 -1500 1872
WIRE -1500 1872 -1452 1872
FLAG -1452 1872 Vin_cb26by10[10]
SYMBOL voltage -1500 2112 R0
SYMATTR InstName V11
SYMATTR Value PWL 0.00ns 0.950V 1.00ns 0.950V 2.00ns 0.950V 400.00ns 0.950V 401.00ns 0.950V
FLAG -1500 2208 0
WIRE -1500 2128 -1500 2064
WIRE -1500 2064 -1452 2064
FLAG -1452 2064 Vin_cb26by10[11]
SYMBOL voltage -1500 2304 R0
SYMATTR InstName V12
SYMATTR Value PWL 0.00ns 0.950V 1.00ns 0.950V 2.00ns 0.950V 400.00ns 0.950V 401.00ns 0.950V
FLAG -1500 2400 0
WIRE -1500 2320 -1500 2256
WIRE -1500 2256 -1452 2256
FLAG -1452 2256 Vin_cb26by10[12]
SYMBOL voltage -1500 2496 R0
SYMATTR InstName V13
SYMATTR Value PWL 0.00ns 0.950V 1.00ns 0.950V 2.00ns 0.950V 400.00ns 0.950V 401.00ns 0.950V
FLAG -1500 2592 0
WIRE -1500 2512 -1500 2448
WIRE -1500 2448 -1452 2448
FLAG -1452 2448 Vin_cb26by10[13]
SYMBOL voltage -1500 2688 R0
SYMATTR InstName V14
SYMATTR Value PWL 0.00ns 0.950V 1.00ns 0.950V 2.00ns 0.950V 400.00ns 0.950V 401.00ns 0.950V
FLAG -1500 2784 0
WIRE -1500 2704 -1500 2640
WIRE -1500 2640 -1452 2640
FLAG -1452 2640 Vin_cb26by10[14]
SYMBOL voltage -1500 2880 R0
SYMATTR InstName V15
SYMATTR Value PWL 0.00ns 0.950V 1.00ns 0.950V 2.00ns 0.950V 400.00ns 0.950V 401.00ns 0.950V
FLAG -1500 2976 0
WIRE -1500 2896 -1500 2832
WIRE -1500 2832 -1452 2832
FLAG -1452 2832 Vin_cb26by10[15]
SYMBOL voltage -1500 3072 R0
SYMATTR InstName V16
SYMATTR Value PWL 0.00ns 0.950V 1.00ns 0.950V 2.00ns 0.950V 400.00ns 0.950V 401.00ns 0.950V
FLAG -1500 3168 0
WIRE -1500 3088 -1500 3024
WIRE -1500 3024 -1452 3024
FLAG -1452 3024 Vin_cb26by10[16]
SYMBOL voltage -1500 3264 R0
SYMATTR InstName V17
SYMATTR Value PWL 0.00ns 0.950V 1.00ns 0.950V 2.00ns 0.950V 400.00ns 0.950V 401.00ns 0.950V
FLAG -1500 3360 0
WIRE -1500 3280 -1500 3216
WIRE -1500 3216 -1452 3216
FLAG -1452 3216 Vin_cb26by10[17]
SYMBOL voltage -1500 3456 R0
SYMATTR InstName V18
SYMATTR Value PWL 0.00ns 0.950V 1.00ns 0.950V 2.00ns 0.950V 400.00ns 0.950V 401.00ns 0.950V
FLAG -1500 3552 0
WIRE -1500 3472 -1500 3408
WIRE -1500 3408 -1452 3408
FLAG -1452 3408 Vin_cb26by10[18]
SYMBOL voltage -1500 3648 R0
SYMATTR InstName V19
SYMATTR Value PWL 0.00ns 0.950V 1.00ns 0.950V 2.00ns 0.950V 400.00ns 0.950V 401.00ns 0.950V
FLAG -1500 3744 0
WIRE -1500 3664 -1500 3600
WIRE -1500 3600 -1452 3600
FLAG -1452 3600 Vin_cb26by10[19]
SYMBOL voltage -1500 3840 R0
SYMATTR InstName V20
SYMATTR Value PWL 0.00ns 0.950V 1.00ns 0.950V 2.00ns 0.950V 400.00ns 0.950V 401.00ns 0.950V
FLAG -1500 3936 0
WIRE -1500 3856 -1500 3792
WIRE -1500 3792 -1452 3792
FLAG -1452 3792 Vin_cb26by10[20]
SYMBOL voltage -1500 4032 R0
SYMATTR InstName V21
SYMATTR Value PWL 0.00ns 0.950V 1.00ns 0.950V 2.00ns 0.950V 400.00ns 0.950V 401.00ns 0.950V
FLAG -1500 4128 0
WIRE -1500 4048 -1500 3984
WIRE -1500 3984 -1452 3984
FLAG -1452 3984 Vin_cb26by10[21]
SYMBOL voltage -1500 4224 R0
SYMATTR InstName V22
SYMATTR Value PWL 0.00ns 0.950V 1.00ns 0.950V 2.00ns 1.150V 400.00ns 1.150V 401.00ns 0.950V
FLAG -1500 4320 0
WIRE -1500 4240 -1500 4176
WIRE -1500 4176 -1452 4176
FLAG -1452 4176 Vin_cb26by10[22]
SYMBOL voltage -1500 4416 R0
SYMATTR InstName V23
SYMATTR Value PWL 0.00ns 0.950V 1.00ns 0.950V 2.00ns 0.950V 400.00ns 0.950V 401.00ns 0.950V
FLAG -1500 4512 0
WIRE -1500 4432 -1500 4368
WIRE -1500 4368 -1452 4368
FLAG -1452 4368 Vin_cb26by10[23]
SYMBOL voltage -1500 4608 R0
SYMATTR InstName V24
SYMATTR Value PWL 0.00ns 0.950V 1.00ns 0.950V 2.00ns 0.950V 400.00ns 0.950V 401.00ns 0.950V
FLAG -1500 4704 0
WIRE -1500 4624 -1500 4560
WIRE -1500 4560 -1452 4560
FLAG -1452 4560 Vin_cb26by10[24]
SYMBOL voltage -1500 4800 R0
SYMATTR InstName V25
SYMATTR Value PWL 0.00ns 0.950V 11.00ns 0.950V 12.00ns 1.200V 410.00ns 1.200V 411.00ns 0.950V
FLAG -1500 4896 0
WIRE -1500 4816 -1500 4752
WIRE -1500 4752 -1452 4752
FLAG -1452 4752 Vin_cb26by10[25]
SYMBOL voltage -1500 4992 R0
SYMATTR InstName V26
SYMATTR Value PWL 0.00ns 0.950V 11.00ns 0.950V 12.00ns 1.200V 410.00ns 1.200V 411.00ns 0.950V
FLAG -1500 5088 0
WIRE -1500 5008 -1500 4944
WIRE -1500 4944 -1452 4944
FLAG -1452 4944 Vin_cb6by2[5]
TEXT -1008 -208 Left 2 !.tran {simtime} 
TEXT -1008 -240 Left 2 !.param simtime 
TEXT -1008 -272 Left 2 !.include ../components/180nm_bulk.txt 
