Version 4
SHEET 1 2360 680
WIRE 128 96 0 96
WIRE 480 96 128 96
WIRE 0 112 0 96
WIRE 128 208 128 96
WIRE 64 240 48 240
WIRE 480 256 480 96
WIRE 64 272 48 272
WIRE 272 288 208 288
WIRE 400 288 352 288
WIRE 608 304 560 304
WIRE 720 304 688 304
WIRE 896 304 848 304
WIRE 1072 304 1040 304
WIRE 400 320 368 320
WIRE 48 336 -32 336
WIRE 64 336 48 336
WIRE -32 352 -32 336
WIRE 48 384 48 336
WIRE 368 384 368 320
WIRE 368 384 48 384
WIRE 128 512 128 368
FLAG 48 240 tia_h_in_+
IOPIN 48 240 In
FLAG 48 272 tia_h_in_-
IOPIN 48 272 In
FLAG 1072 304 sum_activ_out
IOPIN 1072 304 Out
FLAG 0 192 0
FLAG 128 512 0
FLAG -32 432 0
DATAFLAG 272 384 ""
SYMBOL res 704 320 M270
WINDOW 0 32 56 VTop 2
WINDOW 3 0 56 VBottom 2
SYMATTR InstName R1
SYMATTR Value 40
SYMBOL voltage 0 96 R0
WINDOW 123 0 0 Left 0
WINDOW 39 0 0 Left 0
SYMATTR InstName V1
SYMATTR Value 1.8
SYMBOL tia_sch_v0 480 304 R0
SYMATTR InstName X1
SYMBOL CBPlusSubtractor 128 288 R0
SYMATTR InstName X2
SYMBOL sourceFollower 960 304 R0
SYMATTR InstName X3
SYMBOL res 368 304 M270
WINDOW 0 32 56 VTop 2
WINDOW 3 0 56 VBottom 2
SYMATTR InstName R2
SYMATTR Value 40
SYMBOL RNN_Sigmoid4_HA 784 304 R0
SYMATTR InstName X4
SYMBOL voltage -32 336 R0
WINDOW 123 0 0 Left 0
WINDOW 39 0 0 Left 0
SYMATTR InstName V2
SYMATTR Value 0.9
TEXT 504 112 Left 0 !.include "../components/activations.sub"
TEXT 504 96 Left 0 !.include "../components/180nm_bulk.txt"
