Version 4
SHEET 1 2360 5108
WIRE 916 -112 912 -112
WIRE 1700 -112 916 -112
WIRE 1712 -112 1700 -112
WIRE 916 -48 916 -112
WIRE 316 -2 300 -2
WIRE -300 16 -316 16
WIRE 316 34 300 34
WIRE 916 80 912 80
WIRE 1700 80 916 80
WIRE 1712 80 1700 80
WIRE 916 144 916 80
WIRE 916 272 912 272
WIRE 1524 272 916 272
WIRE 1536 272 1524 272
WIRE 916 336 916 272
WIRE 916 464 912 464
WIRE 1700 464 916 464
WIRE 1712 464 1700 464
WIRE -224 480 -240 480
WIRE 240 496 224 496
WIRE -224 512 -240 512
WIRE 916 528 916 464
WIRE 916 656 912 656
WIRE 1700 656 916 656
WIRE 1712 656 1700 656
WIRE 916 720 916 656
WIRE 916 848 912 848
WIRE 1700 848 916 848
WIRE 1712 848 1700 848
WIRE 916 912 916 848
WIRE 316 958 300 958
WIRE -300 976 -316 976
WIRE 316 994 300 994
WIRE 916 1040 912 1040
WIRE 1700 1040 916 1040
WIRE 1712 1040 1700 1040
WIRE 916 1104 916 1040
WIRE 916 1232 912 1232
WIRE 1700 1232 916 1232
WIRE 1712 1232 1700 1232
WIRE 916 1296 916 1232
WIRE 916 1424 912 1424
WIRE 1700 1424 916 1424
WIRE 1712 1424 1700 1424
WIRE -224 1440 -240 1440
WIRE 240 1456 224 1456
WIRE -224 1472 -240 1472
WIRE 916 1488 916 1424
WIRE 1700 1616 916 1616
WIRE 1712 1616 1700 1616
WIRE 916 1680 916 1616
WIRE 916 1808 912 1808
WIRE 1700 1808 916 1808
WIRE 1712 1808 1700 1808
WIRE 916 1872 916 1808
WIRE 916 2000 896 2000
WIRE 1684 2000 916 2000
WIRE 1696 2000 1684 2000
WIRE 916 2064 916 2000
WIRE 916 2192 912 2192
WIRE 1684 2192 916 2192
WIRE 1696 2192 1684 2192
WIRE 916 2256 916 2192
WIRE 916 2384 912 2384
WIRE 1684 2384 916 2384
WIRE 1696 2384 1684 2384
WIRE 916 2448 916 2384
WIRE 916 2576 912 2576
WIRE 1684 2576 916 2576
WIRE 1696 2576 1684 2576
WIRE 916 2640 916 2576
WIRE 916 2768 912 2768
WIRE 1684 2768 916 2768
WIRE 1696 2768 1684 2768
WIRE 916 2832 916 2768
WIRE 916 2960 912 2960
WIRE 1684 2960 916 2960
WIRE 1696 2960 1684 2960
WIRE 916 3024 916 2960
WIRE 916 3152 912 3152
WIRE 1684 3152 916 3152
WIRE 1696 3152 1684 3152
WIRE 916 3216 916 3152
WIRE 916 3344 912 3344
WIRE 1684 3344 916 3344
WIRE 1696 3344 1684 3344
WIRE 916 3408 916 3344
WIRE 916 3536 912 3536
WIRE 1684 3536 916 3536
WIRE 1696 3536 1684 3536
WIRE 916 3600 916 3536
WIRE 916 3728 912 3728
WIRE 1684 3728 916 3728
WIRE 1696 3728 1684 3728
WIRE 916 3792 916 3728
WIRE 916 3920 896 3920
WIRE 1684 3920 916 3920
WIRE 1696 3920 1684 3920
WIRE 916 3984 916 3920
WIRE 916 4112 896 4112
WIRE 1700 4112 916 4112
WIRE 1712 4112 1700 4112
WIRE 916 4176 916 4112
WIRE 916 4304 896 4304
WIRE 1700 4304 916 4304
WIRE 1712 4304 1700 4304
WIRE 916 4368 916 4304
WIRE 916 4496 896 4496
WIRE 1700 4496 916 4496
WIRE 1712 4496 1700 4496
WIRE 916 4560 916 4496
WIRE 916 4688 912 4688
WIRE 1700 4688 916 4688
WIRE 1712 4688 1700 4688
WIRE 916 4752 916 4688
WIRE 916 4880 912 4880
WIRE 1700 4880 916 4880
WIRE 1712 4880 1700 4880
WIRE 916 4944 916 4880
FLAG -316 16 Vin_cb26by10[0:25]
FLAG 316 34 Vout_cb26by10_+[0:4]
FLAG 316 -2 Vout_cb26by10_-[0:4]
FLAG -240 480 Vout_cb26by10_+[0:4]
FLAG -240 512 Vout_cb26by10_-[0:4]
FLAG 240 496 Vin_cb6by2[0:4]
FLAG -316 976 Vin_cb6by2[0:5]
FLAG 316 994 Vout_cb6by2_+[0:0]
FLAG 316 958 Vout_cb6by2_-[0:0]
FLAG -240 1440 Vout_cb6by2_+[0:0]
FLAG -240 1472 Vout_cb6by2_-[0:0]
FLAG 240 1456 h_act_out[0:0]
FLAG 916 32 0
FLAG 1700 -112 Vin_cb26by10[0]
FLAG 916 224 0
FLAG 1700 80 Vin_cb26by10[1]
FLAG 916 416 0
FLAG 1524 272 Vin_cb26by10[2]
FLAG 916 608 0
FLAG 1700 464 Vin_cb26by10[3]
FLAG 916 800 0
FLAG 1700 656 Vin_cb26by10[4]
FLAG 916 992 0
FLAG 1700 848 Vin_cb26by10[5]
FLAG 916 1184 0
FLAG 1700 1040 Vin_cb26by10[6]
FLAG 916 1376 0
FLAG 1700 1232 Vin_cb26by10[7]
FLAG 916 1568 0
FLAG 1700 1424 Vin_cb26by10[8]
FLAG 916 1760 0
FLAG 1700 1616 Vin_cb26by10[9]
FLAG 916 1952 0
FLAG 1700 1808 Vin_cb26by10[10]
FLAG 916 2144 0
FLAG 1684 2000 Vin_cb26by10[11]
FLAG 916 2336 0
FLAG 1684 2192 Vin_cb26by10[12]
FLAG 916 2528 0
FLAG 1684 2384 Vin_cb26by10[13]
FLAG 916 2720 0
FLAG 1684 2576 Vin_cb26by10[14]
FLAG 916 2912 0
FLAG 1684 2768 Vin_cb26by10[15]
FLAG 916 3104 0
FLAG 1684 2960 Vin_cb26by10[16]
FLAG 916 3296 0
FLAG 1684 3152 Vin_cb26by10[17]
FLAG 916 3488 0
FLAG 1684 3344 Vin_cb26by10[18]
FLAG 916 3680 0
FLAG 1684 3536 Vin_cb26by10[19]
FLAG 916 3872 0
FLAG 1684 3728 Vin_cb26by10[20]
FLAG 916 4064 0
FLAG 1684 3920 Vin_cb26by10[21]
FLAG 916 4256 0
FLAG 1700 4112 Vin_cb26by10[22]
FLAG 916 4448 0
FLAG 1700 4304 Vin_cb26by10[23]
FLAG 916 4640 0
FLAG 1700 4496 Vin_cb26by10[24]
FLAG 916 4832 0
FLAG 1700 4688 Vin_cb26by10[25]
FLAG 916 5024 0
FLAG 1700 4880 Vin_cb6by2[5]
DATAFLAG 1200 -112 ""
DATAFLAG 1312 80 ""
DATAFLAG 1328 272 ""
DATAFLAG 1328 464 ""
DATAFLAG 1344 656 ""
DATAFLAG 1392 848 ""
DATAFLAG 1312 1040 ""
DATAFLAG 1296 1232 ""
DATAFLAG 1328 1424 ""
DATAFLAG 1296 1616 ""
DATAFLAG 1312 1808 ""
DATAFLAG 1328 2000 ""
DATAFLAG 1312 2192 ""
DATAFLAG 1328 2384 ""
DATAFLAG 1360 2576 ""
DATAFLAG 1344 2768 ""
DATAFLAG 1344 2960 ""
DATAFLAG 1360 3152 ""
DATAFLAG 1344 3344 ""
DATAFLAG 1360 3536 ""
DATAFLAG 1360 3728 ""
DATAFLAG 1360 3920 ""
DATAFLAG 1360 4112 ""
DATAFLAG 1344 4304 ""
DATAFLAG 1376 4496 ""
DATAFLAG 1360 4688 ""
DATAFLAG 1344 4880 ""
SYMBOL X_cbar_26by10 0 16 R0
SYMATTR InstName X_cbar_26by10
SYMBOL X_aux_10by5 0 496 R0
SYMATTR InstName X_aux_10by5
SYMBOL X_cbar_6by2 0 976 R0
SYMATTR InstName X_cbar_6by2
SYMBOL X_aux_2by1 0 1456 R0
SYMATTR InstName X_aux_2by1
SYMBOL voltage 916 -64 R0
SYMATTR InstName V27
SYMATTR Value PWL 0.00ns 0.950V 1.00ns 0.950V 2.00ns 0.950V 400.00ns 0.950V 401.00ns 0.950V
SYMBOL voltage 916 128 R0
SYMATTR InstName V28
SYMATTR Value PWL 0.00ns 0.950V 1.00ns 0.950V 2.00ns 0.950V 400.00ns 0.950V 401.00ns 0.950V
SYMBOL voltage 916 320 R0
SYMATTR InstName V29
SYMATTR Value PWL 0.00ns 0.950V 1.00ns 0.950V 2.00ns 0.950V 400.00ns 0.950V 401.00ns 0.950V
SYMBOL voltage 916 512 R0
SYMATTR InstName V30
SYMATTR Value PWL 0.00ns 0.950V 1.00ns 0.950V 2.00ns 0.950V 400.00ns 0.950V 401.00ns 0.950V
SYMBOL voltage 916 704 R0
SYMATTR InstName V31
SYMATTR Value PWL 0.00ns 0.950V 1.00ns 0.950V 2.00ns 0.950V 400.00ns 0.950V 401.00ns 0.950V
SYMBOL voltage 916 896 R0
SYMATTR InstName V32
SYMATTR Value PWL 0.00ns 0.950V 1.00ns 0.950V 2.00ns 0.950V 400.00ns 0.950V 401.00ns 0.950V
SYMBOL voltage 916 1088 R0
SYMATTR InstName V33
SYMATTR Value PWL 0.00ns 0.950V 1.00ns 0.950V 2.00ns 0.950V 400.00ns 0.950V 401.00ns 0.950V
SYMBOL voltage 916 1280 R0
SYMATTR InstName V34
SYMATTR Value PWL 0.00ns 0.950V 1.00ns 0.950V 2.00ns 0.950V 400.00ns 0.950V 401.00ns 0.950V
SYMBOL voltage 916 1472 R0
SYMATTR InstName V35
SYMATTR Value PWL 0.00ns 0.950V 1.00ns 0.950V 2.00ns 0.950V 400.00ns 0.950V 401.00ns 0.950V
SYMBOL voltage 916 1664 R0
SYMATTR InstName V36
SYMATTR Value PWL 0.00ns 0.950V 1.00ns 0.950V 2.00ns 0.950V 400.00ns 0.950V 401.00ns 0.950V
SYMBOL voltage 916 1856 R0
SYMATTR InstName V37
SYMATTR Value PWL 0.00ns 0.950V 1.00ns 0.950V 2.00ns 0.950V 400.00ns 0.950V 401.00ns 0.950V
SYMBOL voltage 916 2048 R0
SYMATTR InstName V38
SYMATTR Value PWL 0.00ns 0.950V 1.00ns 0.950V 2.00ns 0.950V 400.00ns 0.950V 401.00ns 0.950V
SYMBOL voltage 916 2240 R0
SYMATTR InstName V39
SYMATTR Value PWL 0.00ns 0.950V 1.00ns 0.950V 2.00ns 0.950V 400.00ns 0.950V 401.00ns 0.950V
SYMBOL voltage 916 2432 R0
SYMATTR InstName V40
SYMATTR Value PWL 0.00ns 0.950V 1.00ns 0.950V 2.00ns 0.950V 400.00ns 0.950V 401.00ns 0.950V
SYMBOL voltage 916 2624 R0
SYMATTR InstName V41
SYMATTR Value PWL 0.00ns 0.950V 1.00ns 0.950V 2.00ns 0.950V 400.00ns 0.950V 401.00ns 0.950V
SYMBOL voltage 916 2816 R0
SYMATTR InstName V42
SYMATTR Value PWL 0.00ns 0.950V 1.00ns 0.950V 2.00ns 0.950V 400.00ns 0.950V 401.00ns 0.950V
SYMBOL voltage 916 3008 R0
SYMATTR InstName V43
SYMATTR Value PWL 0.00ns 0.950V 1.00ns 0.950V 2.00ns 0.950V 400.00ns 0.950V 401.00ns 0.950V
SYMBOL voltage 916 3200 R0
SYMATTR InstName V44
SYMATTR Value PWL 0.00ns 0.950V 1.00ns 0.950V 2.00ns 0.950V 400.00ns 0.950V 401.00ns 0.950V
SYMBOL voltage 916 3392 R0
SYMATTR InstName V45
SYMATTR Value PWL 0.00ns 0.950V 1.00ns 0.950V 2.00ns 0.950V 400.00ns 0.950V 401.00ns 0.950V
SYMBOL voltage 916 3584 R0
SYMATTR InstName V46
SYMATTR Value PWL 0.00ns 0.950V 1.00ns 0.950V 2.00ns 0.950V 400.00ns 0.950V 401.00ns 0.950V
SYMBOL voltage 916 3776 R0
SYMATTR InstName V47
SYMATTR Value PWL 0.00ns 0.950V 1.00ns 0.950V 2.00ns 0.950V 400.00ns 0.950V 401.00ns 0.950V
SYMBOL voltage 916 3968 R0
SYMATTR InstName V48
SYMATTR Value PWL 0.00ns 0.950V 1.00ns 0.950V 2.00ns 0.950V 400.00ns 0.950V 401.00ns 0.950V
SYMBOL voltage 916 4160 R0
SYMATTR InstName V49
SYMATTR Value PWL 0.00ns 0.950V 1.00ns 0.950V 2.00ns 0.950V 400.00ns 0.950V 401.00ns 0.950V
SYMBOL voltage 916 4352 R0
WINDOW 123 0 0 Left 0
WINDOW 39 0 0 Left 0
SYMATTR InstName V50
SYMATTR Value PWL 0.00ns 0.950V 1.00ns 0.950V 2.00ns 0.950V 400.00ns 0.950V 401.00ns 0.950V
SYMBOL voltage 916 4544 R0
SYMATTR InstName V51
SYMATTR Value PWL 0.00ns 0.950V 1.00ns 0.950V 2.00ns 0.950V 400.00ns 0.950V 401.00ns 0.950V
SYMBOL voltage 916 4736 R0
WINDOW 123 0 0 Left 0
WINDOW 39 24 124 Left 2
SYMATTR InstName V52
SYMATTR Value PWL 0.00ns 0.950V 1.00ns 0.950V 2.00ns 0.950V 400.00ns 0.950V 401.00ns 0.950V
SYMBOL voltage 916 4928 R0
WINDOW 123 0 0 Left 0
WINDOW 39 0 0 Left 0
SYMATTR InstName V53
SYMATTR Value PWL 0.00ns 0.950V 1.00ns 0.950V 2.00ns 0.950V 400.00ns 0.950V 401.00ns 0.950V
TEXT -1008 -208 Left 2 !.tran {simtime}
TEXT -1008 -240 Left 2 !.param simtime=1u
TEXT -1008 -272 Left 2 !.include ../components/180nm_bulk.txt
