* Netlist that describe the physical circuit (components and connexions between them) to simulate, in Xyce formalism.
* To make the translation from any network size, the circuit is scaled up automatically using Jinja template engine.
*
* Xyce: https://xyce.sandia.gov
* Jinja: https://jinja.palletsprojects.com

* ======================== Simulation parameters ==========================

.TRAN 0.30ns 331.00ns

* OPTIONS TIMEINT change the time integration parameters
* ERROPTION (If 0 Local Truncation Error is used)
* METHOD: Time integration method
* NLMIN, NLMAX:  lower and upper bound for the desired number of nonlinear iterations
* DELMAX: The maximum time step-size used
* This additional line allows to fix convergence problem but increases the simulation time
* List variables to save in the result table
.PRINT TRAN V(sum_h_out_003_001) V(hidden_activ_out_h003_001)
+ V(i_001) V(i_002) V(i_003) V(i_004) V(i_005) V(i_006) V(i_007) V(i_008) V(i_009) V(i_010) V(i_011) V(i_012) V(i_013) V(i_014) V(i_015) V(i_016) V(i_017) V(i_018) V(i_019) V(i_020) V(i_021) V(i_022) V(i_023) V(i_024) V(i_025) V(i_026) V(i_027) V(i_028) V(i_029) V(i_030) V(i_031) V(i_032) V(i_033) V(i_034) V(i_035) V(i_036) V(i_037) V(i_038) V(i_039) V(i_040) V(i_041) V(i_042) V(i_043) V(i_044) V(i_045) V(i_046) V(i_047) V(i_048) V(i_049) V(i_050) V(i_051) V(i_052) V(i_053) V(i_054) V(i_055) V(i_056) V(i_057) V(i_058) V(i_059) V(i_060) V(i_061) V(i_062) V(i_063) V(i_064)
+ V(sum_h_out_001_001) V(hidden_activ_out_h001_001) V(sum_h_out_001_002) V(hidden_activ_out_h001_002) V(sum_h_out_001_003) V(hidden_activ_out_h001_003) V(sum_h_out_001_004) V(hidden_activ_out_h001_004) V(sum_h_out_001_005) V(hidden_activ_out_h001_005) V(sum_h_out_001_006) V(hidden_activ_out_h001_006) V(sum_h_out_001_007) V(hidden_activ_out_h001_007) V(sum_h_out_001_008) V(hidden_activ_out_h001_008) V(sum_h_out_001_009) V(hidden_activ_out_h001_009) V(sum_h_out_001_010) V(hidden_activ_out_h001_010) V(sum_h_out_001_011) V(hidden_activ_out_h001_011) V(sum_h_out_001_012) V(hidden_activ_out_h001_012) V(sum_h_out_001_013) V(hidden_activ_out_h001_013) V(sum_h_out_001_014) V(hidden_activ_out_h001_014) V(sum_h_out_001_015) V(hidden_activ_out_h001_015) V(sum_h_out_001_016) V(hidden_activ_out_h001_016) V(sum_h_out_001_017) V(hidden_activ_out_h001_017) V(sum_h_out_001_018) V(hidden_activ_out_h001_018) V(sum_h_out_001_019) V(hidden_activ_out_h001_019) V(sum_h_out_001_020) V(hidden_activ_out_h001_020)
+ V(tia_h_out_001_001+) V(tia_h_out_001_001-) V(tia_h_out_001_002+) V(tia_h_out_001_002-) V(tia_h_out_001_003+) V(tia_h_out_001_003-) V(tia_h_out_001_004+) V(tia_h_out_001_004-) V(tia_h_out_001_005+) V(tia_h_out_001_005-) V(tia_h_out_001_006+) V(tia_h_out_001_006-) V(tia_h_out_001_007+) V(tia_h_out_001_007-) V(tia_h_out_001_008+) V(tia_h_out_001_008-) V(tia_h_out_001_009+) V(tia_h_out_001_009-) V(tia_h_out_001_010+) V(tia_h_out_001_010-) V(tia_h_out_001_011+) V(tia_h_out_001_011-) V(tia_h_out_001_012+) V(tia_h_out_001_012-) V(tia_h_out_001_013+) V(tia_h_out_001_013-) V(tia_h_out_001_014+) V(tia_h_out_001_014-) V(tia_h_out_001_015+) V(tia_h_out_001_015-) V(tia_h_out_001_016+) V(tia_h_out_001_016-) V(tia_h_out_001_017+) V(tia_h_out_001_017-) V(tia_h_out_001_018+) V(tia_h_out_001_018-) V(tia_h_out_001_019+) V(tia_h_out_001_019-) V(tia_h_out_001_020+) V(tia_h_out_001_020-)
+ V(b_001)
+ V(sum_h_out_002_001) V(hidden_activ_out_h002_001) V(sum_h_out_002_002) V(hidden_activ_out_h002_002) V(sum_h_out_002_003) V(hidden_activ_out_h002_003) V(sum_h_out_002_004) V(hidden_activ_out_h002_004) V(sum_h_out_002_005) V(hidden_activ_out_h002_005) V(sum_h_out_002_006) V(hidden_activ_out_h002_006) V(sum_h_out_002_007) V(hidden_activ_out_h002_007) V(sum_h_out_002_008) V(hidden_activ_out_h002_008) V(sum_h_out_002_009) V(hidden_activ_out_h002_009) V(sum_h_out_002_010) V(hidden_activ_out_h002_010)
+ V(tia_h_out_002_001+) V(tia_h_out_002_001-) V(tia_h_out_002_002+) V(tia_h_out_002_002-) V(tia_h_out_002_003+) V(tia_h_out_002_003-) V(tia_h_out_002_004+) V(tia_h_out_002_004-) V(tia_h_out_002_005+) V(tia_h_out_002_005-) V(tia_h_out_002_006+) V(tia_h_out_002_006-) V(tia_h_out_002_007+) V(tia_h_out_002_007-) V(tia_h_out_002_008+) V(tia_h_out_002_008-) V(tia_h_out_002_009+) V(tia_h_out_002_009-) V(tia_h_out_002_010+) V(tia_h_out_002_010-)
+ V(b_002)
+ V(sum_h_out_003_001) V(hidden_activ_out_h003_001)
+ V(tia_h_out_003_001+) V(tia_h_out_003_001-)
+ V(b_003)

* =============================== Models ==================================

* Call the defined components model from the specified path
*.INCLUDE "./components/MAX4223.sub"
.INCLUDE "./components/TLV3501.sub"
*.INCLUDE "./components/OPA684.sub"

* Import custom sub-circuits
.INCLUDE "./components/activations.sub"
.INCLUDE "./components/lumped_line.sub"
.INCLUDE "./components/Sigmoid3_HA.spice"

* Define diode model
.MODEL D_BAV74_1 D( IS=2.073F N=1 BV=50 IBV=100N RS=1.336 
+      CJO=2P VJ=750M M=330M FC=500M TT=5.771N 
+      EG=1.11 XTI=3 KF=0 AF=1 )

* ============================== Voltages =================================

* ----- Input pulses
* Vi_num: The input voltage as pulse sequences
Vi_001    i_001    0    PWL 0.00ns 0.950V 1.00ns 0.950V 2.00ns 1.083V 300.00ns 1.083V 301.00ns 0.950V
Vi_002    i_002    0    PWL 0.00ns 0.950V 1.00ns 0.950V 2.00ns 1.035V 300.00ns 1.035V 301.00ns 0.950V
Vi_003    i_003    0    PWL 0.00ns 0.950V 1.00ns 0.950V 2.00ns 1.000V 300.00ns 1.000V 301.00ns 0.950V
Vi_004    i_004    0    PWL 0.00ns 0.950V 1.00ns 0.950V 2.00ns 0.972V 300.00ns 0.972V 301.00ns 0.950V
Vi_005    i_005    0    PWL 0.00ns 0.950V 1.00ns 0.950V 2.00ns 1.009V 300.00ns 1.009V 301.00ns 0.950V
Vi_006    i_006    0    PWL 0.00ns 0.950V 1.00ns 0.950V 2.00ns 0.995V 300.00ns 0.995V 301.00ns 0.950V
Vi_007    i_007    0    PWL 0.00ns 0.950V 1.00ns 0.950V 2.00ns 1.042V 300.00ns 1.042V 301.00ns 0.950V
Vi_008    i_008    0    PWL 0.00ns 0.950V 1.00ns 0.950V 2.00ns 0.950V 300.00ns 0.950V 301.00ns 0.950V
Vi_009    i_009    0    PWL 0.00ns 0.950V 1.00ns 0.950V 2.00ns 1.080V 300.00ns 1.080V 301.00ns 0.950V
Vi_010    i_010    0    PWL 0.00ns 0.950V 1.00ns 0.950V 2.00ns 1.039V 300.00ns 1.039V 301.00ns 0.950V
Vi_011    i_011    0    PWL 0.00ns 0.950V 1.00ns 0.950V 2.00ns 0.995V 300.00ns 0.995V 301.00ns 0.950V
Vi_012    i_012    0    PWL 0.00ns 0.950V 1.00ns 0.950V 2.00ns 1.005V 300.00ns 1.005V 301.00ns 0.950V
Vi_013    i_013    0    PWL 0.00ns 0.950V 1.00ns 0.950V 2.00ns 1.010V 300.00ns 1.010V 301.00ns 0.950V
Vi_014    i_014    0    PWL 0.00ns 0.950V 1.00ns 0.950V 2.00ns 1.038V 300.00ns 1.038V 301.00ns 0.950V
Vi_015    i_015    0    PWL 0.00ns 0.950V 1.00ns 0.950V 2.00ns 1.053V 300.00ns 1.053V 301.00ns 0.950V
Vi_016    i_016    0    PWL 0.00ns 0.950V 1.00ns 0.950V 2.00ns 0.960V 300.00ns 0.960V 301.00ns 0.950V
Vi_017    i_017    0    PWL 0.00ns 0.950V 1.00ns 0.950V 2.00ns 1.073V 300.00ns 1.073V 301.00ns 0.950V
Vi_018    i_018    0    PWL 0.00ns 0.950V 1.00ns 0.950V 2.00ns 1.050V 300.00ns 1.050V 301.00ns 0.950V
Vi_019    i_019    0    PWL 0.00ns 0.950V 1.00ns 0.950V 2.00ns 0.992V 300.00ns 0.992V 301.00ns 0.950V
Vi_020    i_020    0    PWL 0.00ns 0.950V 1.00ns 0.950V 2.00ns 1.025V 300.00ns 1.025V 301.00ns 0.950V
Vi_021    i_021    0    PWL 0.00ns 0.950V 1.00ns 0.950V 2.00ns 1.072V 300.00ns 1.072V 301.00ns 0.950V
Vi_022    i_022    0    PWL 0.00ns 0.950V 1.00ns 0.950V 2.00ns 1.035V 300.00ns 1.035V 301.00ns 0.950V
Vi_023    i_023    0    PWL 0.00ns 0.950V 1.00ns 0.950V 2.00ns 1.081V 300.00ns 1.081V 301.00ns 0.950V
Vi_024    i_024    0    PWL 0.00ns 0.950V 1.00ns 0.950V 2.00ns 0.996V 300.00ns 0.996V 301.00ns 0.950V
Vi_025    i_025    0    PWL 0.00ns 0.950V 1.00ns 0.950V 2.00ns 1.104V 300.00ns 1.104V 301.00ns 0.950V
Vi_026    i_026    0    PWL 0.00ns 0.950V 1.00ns 0.950V 2.00ns 1.054V 300.00ns 1.054V 301.00ns 0.950V
Vi_027    i_027    0    PWL 0.00ns 0.950V 1.00ns 0.950V 2.00ns 1.019V 300.00ns 1.019V 301.00ns 0.950V
Vi_028    i_028    0    PWL 0.00ns 0.950V 1.00ns 0.950V 2.00ns 1.028V 300.00ns 1.028V 301.00ns 0.950V
Vi_029    i_029    0    PWL 0.00ns 0.950V 1.00ns 0.950V 2.00ns 1.034V 300.00ns 1.034V 301.00ns 0.950V
Vi_030    i_030    0    PWL 0.00ns 0.950V 1.00ns 0.950V 2.00ns 1.049V 300.00ns 1.049V 301.00ns 0.950V
Vi_031    i_031    0    PWL 0.00ns 0.950V 1.00ns 0.950V 2.00ns 1.072V 300.00ns 1.072V 301.00ns 0.950V
Vi_032    i_032    0    PWL 0.00ns 0.950V 1.00ns 0.950V 2.00ns 0.995V 300.00ns 0.995V 301.00ns 0.950V
Vi_033    i_033    0    PWL 0.00ns 0.950V 1.00ns 0.950V 2.00ns 1.130V 300.00ns 1.130V 301.00ns 0.950V
Vi_034    i_034    0    PWL 0.00ns 0.950V 1.00ns 0.950V 2.00ns 1.073V 300.00ns 1.073V 301.00ns 0.950V
Vi_035    i_035    0    PWL 0.00ns 0.950V 1.00ns 0.950V 2.00ns 1.030V 300.00ns 1.030V 301.00ns 0.950V
Vi_036    i_036    0    PWL 0.00ns 0.950V 1.00ns 0.950V 2.00ns 1.023V 300.00ns 1.023V 301.00ns 0.950V
Vi_037    i_037    0    PWL 0.00ns 0.950V 1.00ns 0.950V 2.00ns 1.087V 300.00ns 1.087V 301.00ns 0.950V
Vi_038    i_038    0    PWL 0.00ns 0.950V 1.00ns 0.950V 2.00ns 1.066V 300.00ns 1.066V 301.00ns 0.950V
Vi_039    i_039    0    PWL 0.00ns 0.950V 1.00ns 0.950V 2.00ns 1.086V 300.00ns 1.086V 301.00ns 0.950V
Vi_040    i_040    0    PWL 0.00ns 0.950V 1.00ns 0.950V 2.00ns 1.019V 300.00ns 1.019V 301.00ns 0.950V
Vi_041    i_041    0    PWL 0.00ns 0.950V 1.00ns 0.950V 2.00ns 1.150V 300.00ns 1.150V 301.00ns 0.950V
Vi_042    i_042    0    PWL 0.00ns 0.950V 1.00ns 0.950V 2.00ns 1.091V 300.00ns 1.091V 301.00ns 0.950V
Vi_043    i_043    0    PWL 0.00ns 0.950V 1.00ns 0.950V 2.00ns 1.036V 300.00ns 1.036V 301.00ns 0.950V
Vi_044    i_044    0    PWL 0.00ns 0.950V 1.00ns 0.950V 2.00ns 1.042V 300.00ns 1.042V 301.00ns 0.950V
Vi_045    i_045    0    PWL 0.00ns 0.950V 1.00ns 0.950V 2.00ns 1.094V 300.00ns 1.094V 301.00ns 0.950V
Vi_046    i_046    0    PWL 0.00ns 0.950V 1.00ns 0.950V 2.00ns 1.075V 300.00ns 1.075V 301.00ns 0.950V
Vi_047    i_047    0    PWL 0.00ns 0.950V 1.00ns 0.950V 2.00ns 1.103V 300.00ns 1.103V 301.00ns 0.950V
Vi_048    i_048    0    PWL 0.00ns 0.950V 1.00ns 0.950V 2.00ns 1.023V 300.00ns 1.023V 301.00ns 0.950V
Vi_049    i_049    0    PWL 0.00ns 0.950V 1.00ns 0.950V 2.00ns 1.136V 300.00ns 1.136V 301.00ns 0.950V
Vi_050    i_050    0    PWL 0.00ns 0.950V 1.00ns 0.950V 2.00ns 1.109V 300.00ns 1.109V 301.00ns 0.950V
Vi_051    i_051    0    PWL 0.00ns 0.950V 1.00ns 0.950V 2.00ns 1.062V 300.00ns 1.062V 301.00ns 0.950V
Vi_052    i_052    0    PWL 0.00ns 0.950V 1.00ns 0.950V 2.00ns 1.044V 300.00ns 1.044V 301.00ns 0.950V
Vi_053    i_053    0    PWL 0.00ns 0.950V 1.00ns 0.950V 2.00ns 1.100V 300.00ns 1.100V 301.00ns 0.950V
Vi_054    i_054    0    PWL 0.00ns 0.950V 1.00ns 0.950V 2.00ns 1.085V 300.00ns 1.085V 301.00ns 0.950V
Vi_055    i_055    0    PWL 0.00ns 0.950V 1.00ns 0.950V 2.00ns 1.091V 300.00ns 1.091V 301.00ns 0.950V
Vi_056    i_056    0    PWL 0.00ns 0.950V 1.00ns 0.950V 2.00ns 1.020V 300.00ns 1.020V 301.00ns 0.950V
Vi_057    i_057    0    PWL 0.00ns 0.950V 1.00ns 0.950V 2.00ns 1.133V 300.00ns 1.133V 301.00ns 0.950V
Vi_058    i_058    0    PWL 0.00ns 0.950V 1.00ns 0.950V 2.00ns 1.107V 300.00ns 1.107V 301.00ns 0.950V
Vi_059    i_059    0    PWL 0.00ns 0.950V 1.00ns 0.950V 2.00ns 1.074V 300.00ns 1.074V 301.00ns 0.950V
Vi_060    i_060    0    PWL 0.00ns 0.950V 1.00ns 0.950V 2.00ns 1.045V 300.00ns 1.045V 301.00ns 0.950V
Vi_061    i_061    0    PWL 0.00ns 0.950V 1.00ns 0.950V 2.00ns 1.115V 300.00ns 1.115V 301.00ns 0.950V
Vi_062    i_062    0    PWL 0.00ns 0.950V 1.00ns 0.950V 2.00ns 1.057V 300.00ns 1.057V 301.00ns 0.950V
Vi_063    i_063    0    PWL 0.00ns 0.950V 1.00ns 0.950V 2.00ns 1.135V 300.00ns 1.135V 301.00ns 0.950V
Vi_064    i_064    0    PWL 0.00ns 0.950V 1.00ns 0.950V 2.00ns 1.033V 300.00ns 1.033V 301.00ns 0.950V

* Vb_num: The bias voltage as pulse sequences

Vb_001    b_001    0    PWL 0.00ns 0.950V 1.00ns 0.950V 2.00ns 1.150V 300.00ns 1.150V 301.00ns 0.950V
Vb_002    b_002    0    PWL 0.00ns 0.950V 11.00ns 0.950V 12.00ns 1.150V 310.00ns 1.150V 311.00ns 0.950V
Vb_003    b_003    0    PWL 0.00ns 0.950V 21.00ns 0.950V 22.00ns 1.150V 320.00ns 1.150V 321.00ns 0.950V

Ve        Ve       0    3
Vcc-      Vcc-     0    -5
Vcc+      Vcc+     0    5

* ============================ NN Parameters ==============================
* Parameters (weights and bias) naming convention: "Rl_i_j+" where:
*   R: Always "R" to inform Xyce it is a resistance
*   l: layer name, "h" for the hidden and output layers and "b" for the biases.
*   i: index of the weight of a neuron (start from 1)
*   j: index of the neuron (start from 1)
*   +: parameter polarity, + or -

* ----------------------------- Layers -----------------------------


* ----- Weights
* Layer 001

* Neuron 1
Rh001_001_001+    i_001    tia_h_in_001_001+    121029.16352100707
Rh001_001_001-    i_001    tia_h_in_001_001-    26604.586298782495
Rh001_002_001+    i_002    tia_h_in_001_001+    120700.51264123355
Rh001_002_001-    i_002    tia_h_in_001_001-    23626.834583053416
Rh001_003_001+    i_003    tia_h_in_001_001+    99066.72376520271
Rh001_003_001-    i_003    tia_h_in_001_001-    118967.06792834178
Rh001_004_001+    i_004    tia_h_in_001_001+    27026.721587790697
Rh001_004_001-    i_004    tia_h_in_001_001-    120867.44497983945
Rh001_005_001+    i_005    tia_h_in_001_001+    23128.570645191023
Rh001_005_001-    i_005    tia_h_in_001_001-    120182.296121053
Rh001_006_001+    i_006    tia_h_in_001_001+    28828.173973941564
Rh001_006_001-    i_006    tia_h_in_001_001-    119932.69073462243
Rh001_007_001+    i_007    tia_h_in_001_001+    121200.46784558384
Rh001_007_001-    i_007    tia_h_in_001_001-    73781.3264762695
Rh001_008_001+    i_008    tia_h_in_001_001+    120934.83536510603
Rh001_008_001-    i_008    tia_h_in_001_001-    53878.36843904545
Rh001_009_001+    i_009    tia_h_in_001_001+    119915.71564731402
Rh001_009_001-    i_009    tia_h_in_001_001-    84535.00312183071
Rh001_010_001+    i_010    tia_h_in_001_001+    67166.7713389851
Rh001_010_001-    i_010    tia_h_in_001_001-    119800.99430376728
Rh001_011_001+    i_011    tia_h_in_001_001+    31113.384270098606
Rh001_011_001-    i_011    tia_h_in_001_001-    120557.91227530874
Rh001_012_001+    i_012    tia_h_in_001_001+    39248.35317571177
Rh001_012_001-    i_012    tia_h_in_001_001-    118378.32280535267
Rh001_013_001+    i_013    tia_h_in_001_001+    58584.1669905716
Rh001_013_001-    i_013    tia_h_in_001_001-    119015.94465609612
Rh001_014_001+    i_014    tia_h_in_001_001+    119597.50757370109
Rh001_014_001-    i_014    tia_h_in_001_001-    55363.16069077775
Rh001_015_001+    i_015    tia_h_in_001_001+    120107.8946401058
Rh001_015_001-    i_015    tia_h_in_001_001-    32021.3082161856
Rh001_016_001+    i_016    tia_h_in_001_001+    119293.88405307176
Rh001_016_001-    i_016    tia_h_in_001_001-    76841.54486013998
Rh001_017_001+    i_017    tia_h_in_001_001+    121210.730134822
Rh001_017_001-    i_017    tia_h_in_001_001-    55193.43296815773
Rh001_018_001+    i_018    tia_h_in_001_001+    42999.50704099807
Rh001_018_001-    i_018    tia_h_in_001_001-    119021.01688929688
Rh001_019_001+    i_019    tia_h_in_001_001+    5000
Rh001_019_001-    i_019    tia_h_in_001_001-    5000
Rh001_020_001+    i_020    tia_h_in_001_001+    27262.88979838742
Rh001_020_001-    i_020    tia_h_in_001_001-    121757.09400798022
Rh001_021_001+    i_021    tia_h_in_001_001+    88863.60024198492
Rh001_021_001-    i_021    tia_h_in_001_001-    118078.195521666
Rh001_022_001+    i_022    tia_h_in_001_001+    120597.82749383088
Rh001_022_001-    i_022    tia_h_in_001_001-    61897.82407518889
Rh001_023_001+    i_023    tia_h_in_001_001+    120321.632143572
Rh001_023_001-    i_023    tia_h_in_001_001-    66236.76090962837
Rh001_024_001+    i_024    tia_h_in_001_001+    5000
Rh001_024_001-    i_024    tia_h_in_001_001-    35429.4690051122
Rh001_025_001+    i_025    tia_h_in_001_001+    36682.87375241355
Rh001_025_001-    i_025    tia_h_in_001_001-    120620.47467524718
Rh001_026_001+    i_026    tia_h_in_001_001+    58177.69836784914
Rh001_026_001-    i_026    tia_h_in_001_001-    120016.38524913338
Rh001_027_001+    i_027    tia_h_in_001_001+    31207.98430624449
Rh001_027_001-    i_027    tia_h_in_001_001-    5000
Rh001_028_001+    i_028    tia_h_in_001_001+    94212.03532673832
Rh001_028_001-    i_028    tia_h_in_001_001-    121182.520665206
Rh001_029_001+    i_029    tia_h_in_001_001+    121167.23091797953
Rh001_029_001-    i_029    tia_h_in_001_001-    42080.19348379984
Rh001_030_001+    i_030    tia_h_in_001_001+    120755.44540835211
Rh001_030_001-    i_030    tia_h_in_001_001-    47473.507001308615
Rh001_031_001+    i_031    tia_h_in_001_001+    118991.45381286196
Rh001_031_001-    i_031    tia_h_in_001_001-    5000
Rh001_032_001+    i_032    tia_h_in_001_001+    70657.61542834865
Rh001_032_001-    i_032    tia_h_in_001_001-    121761.32525990887
Rh001_033_001+    i_033    tia_h_in_001_001+    5000
Rh001_033_001-    i_033    tia_h_in_001_001-    119201.21299929512
Rh001_034_001+    i_034    tia_h_in_001_001+    5000
Rh001_034_001-    i_034    tia_h_in_001_001-    117894.5906604111
Rh001_035_001+    i_035    tia_h_in_001_001+    119579.76800788291
Rh001_035_001-    i_035    tia_h_in_001_001-    111462.21723102785
Rh001_036_001+    i_036    tia_h_in_001_001+    119734.52330788861
Rh001_036_001-    i_036    tia_h_in_001_001-    91424.59199300379
Rh001_037_001+    i_037    tia_h_in_001_001+    119079.8457886117
Rh001_037_001-    i_037    tia_h_in_001_001-    81148.61874076909
Rh001_038_001+    i_038    tia_h_in_001_001+    121712.92325231015
Rh001_038_001-    i_038    tia_h_in_001_001-    5000
Rh001_039_001+    i_039    tia_h_in_001_001+    120724.87237827345
Rh001_039_001-    i_039    tia_h_in_001_001-    65864.45479272498
Rh001_040_001+    i_040    tia_h_in_001_001+    58519.2340798162
Rh001_040_001-    i_040    tia_h_in_001_001-    117883.57023549649
Rh001_041_001+    i_041    tia_h_in_001_001+    49104.64562337393
Rh001_041_001-    i_041    tia_h_in_001_001-    120404.56180774618
Rh001_042_001+    i_042    tia_h_in_001_001+    120819.15535247575
Rh001_042_001-    i_042    tia_h_in_001_001-    61352.60002885691
Rh001_043_001+    i_043    tia_h_in_001_001+    121084.919115528
Rh001_043_001-    i_043    tia_h_in_001_001-    114434.44467803476
Rh001_044_001+    i_044    tia_h_in_001_001+    120742.95807766056
Rh001_044_001-    i_044    tia_h_in_001_001-    120000
Rh001_045_001+    i_045    tia_h_in_001_001+    119715.57658638418
Rh001_045_001-    i_045    tia_h_in_001_001-    61786.62554168954
Rh001_046_001+    i_046    tia_h_in_001_001+    119401.62865622349
Rh001_046_001-    i_046    tia_h_in_001_001-    56250.88141116952
Rh001_047_001+    i_047    tia_h_in_001_001+    65559.40354338368
Rh001_047_001-    i_047    tia_h_in_001_001-    119387.64610584587
Rh001_048_001+    i_048    tia_h_in_001_001+    120000
Rh001_048_001-    i_048    tia_h_in_001_001-    121652.93046509744
Rh001_049_001+    i_049    tia_h_in_001_001+    46820.84422836565
Rh001_049_001-    i_049    tia_h_in_001_001-    120931.33951743871
Rh001_050_001+    i_050    tia_h_in_001_001+    45453.77177816445
Rh001_050_001-    i_050    tia_h_in_001_001-    120709.5452325173
Rh001_051_001+    i_051    tia_h_in_001_001+    120659.77217700976
Rh001_051_001-    i_051    tia_h_in_001_001-    88073.39375929406
Rh001_052_001+    i_052    tia_h_in_001_001+    120577.73638753795
Rh001_052_001-    i_052    tia_h_in_001_001-    57367.92204436632
Rh001_053_001+    i_053    tia_h_in_001_001+    119986.80195846618
Rh001_053_001-    i_053    tia_h_in_001_001-    43868.802307776175
Rh001_054_001+    i_054    tia_h_in_001_001+    121147.30264057912
Rh001_054_001-    i_054    tia_h_in_001_001-    5000
Rh001_055_001+    i_055    tia_h_in_001_001+    74914.91437249846
Rh001_055_001-    i_055    tia_h_in_001_001-    119963.17624841086
Rh001_056_001+    i_056    tia_h_in_001_001+    119229.75605637534
Rh001_056_001-    i_056    tia_h_in_001_001-    57366.91048877324
Rh001_057_001+    i_057    tia_h_in_001_001+    5000
Rh001_057_001-    i_057    tia_h_in_001_001-    120873.95309275421
Rh001_058_001+    i_058    tia_h_in_001_001+    120583.10870678225
Rh001_058_001-    i_058    tia_h_in_001_001-    84756.2913325527
Rh001_059_001+    i_059    tia_h_in_001_001+    121186.11766552611
Rh001_059_001-    i_059    tia_h_in_001_001-    21599.157981302662
Rh001_060_001+    i_060    tia_h_in_001_001+    120000
Rh001_060_001-    i_060    tia_h_in_001_001-    22381.546298514422
Rh001_061_001+    i_061    tia_h_in_001_001+    120528.75078643013
Rh001_061_001-    i_061    tia_h_in_001_001-    101128.58965972858
Rh001_062_001+    i_062    tia_h_in_001_001+    40198.465110336445
Rh001_062_001-    i_062    tia_h_in_001_001-    122257.77731796815
Rh001_063_001+    i_063    tia_h_in_001_001+    27886.41399205122
Rh001_063_001-    i_063    tia_h_in_001_001-    120469.91563692568
Rh001_064_001+    i_064    tia_h_in_001_001+    33078.534065266096
Rh001_064_001-    i_064    tia_h_in_001_001-    119897.59028799438

* Neuron 2
Rh001_001_002+    i_001    tia_h_in_001_002+    120118.86553775534
Rh001_001_002-    i_001    tia_h_in_001_002-    31893.397836213906
Rh001_002_002+    i_002    tia_h_in_001_002+    119930.54450732902
Rh001_002_002-    i_002    tia_h_in_001_002-    28570.73519517037
Rh001_003_002+    i_003    tia_h_in_001_002+    119901.97769094586
Rh001_003_002-    i_003    tia_h_in_001_002-    55736.077821823266
Rh001_004_002+    i_004    tia_h_in_001_002+    121302.1012975004
Rh001_004_002-    i_004    tia_h_in_001_002-    5000
Rh001_005_002+    i_005    tia_h_in_001_002+    117596.08690476384
Rh001_005_002-    i_005    tia_h_in_001_002-    63596.146984324085
Rh001_006_002+    i_006    tia_h_in_001_002+    118908.30794247072
Rh001_006_002-    i_006    tia_h_in_001_002-    33179.966503976
Rh001_007_002+    i_007    tia_h_in_001_002+    120182.18356661846
Rh001_007_002-    i_007    tia_h_in_001_002-    29716.475908658893
Rh001_008_002+    i_008    tia_h_in_001_002+    120147.01246091303
Rh001_008_002-    i_008    tia_h_in_001_002-    35151.18518860717
Rh001_009_002+    i_009    tia_h_in_001_002+    121343.47366748034
Rh001_009_002-    i_009    tia_h_in_001_002-    26188.032196971817
Rh001_010_002+    i_010    tia_h_in_001_002+    43237.330392619464
Rh001_010_002-    i_010    tia_h_in_001_002-    120000
Rh001_011_002+    i_011    tia_h_in_001_002+    119826.64171868587
Rh001_011_002-    i_011    tia_h_in_001_002-    75404.42100094547
Rh001_012_002+    i_012    tia_h_in_001_002+    41256.94270631952
Rh001_012_002-    i_012    tia_h_in_001_002-    121670.88667425285
Rh001_013_002+    i_013    tia_h_in_001_002+    99340.10547055124
Rh001_013_002-    i_013    tia_h_in_001_002-    120467.52955585823
Rh001_014_002+    i_014    tia_h_in_001_002+    119243.11334466447
Rh001_014_002-    i_014    tia_h_in_001_002-    101298.81485079302
Rh001_015_002+    i_015    tia_h_in_001_002+    56601.57084304448
Rh001_015_002-    i_015    tia_h_in_001_002-    119009.83536056962
Rh001_016_002+    i_016    tia_h_in_001_002+    63458.81162971003
Rh001_016_002-    i_016    tia_h_in_001_002-    120590.1559381146
Rh001_017_002+    i_017    tia_h_in_001_002+    30750.904686822712
Rh001_017_002-    i_017    tia_h_in_001_002-    121024.19092412459
Rh001_018_002+    i_018    tia_h_in_001_002+    118835.99910084043
Rh001_018_002-    i_018    tia_h_in_001_002-    5000
Rh001_019_002+    i_019    tia_h_in_001_002+    113449.80559516042
Rh001_019_002-    i_019    tia_h_in_001_002-    119897.81702165559
Rh001_020_002+    i_020    tia_h_in_001_002+    119584.87828560824
Rh001_020_002-    i_020    tia_h_in_001_002-    66826.95548673034
Rh001_021_002+    i_021    tia_h_in_001_002+    87508.82974697194
Rh001_021_002-    i_021    tia_h_in_001_002-    5000
Rh001_022_002+    i_022    tia_h_in_001_002+    37846.835835416096
Rh001_022_002-    i_022    tia_h_in_001_002-    119904.43629330829
Rh001_023_002+    i_023    tia_h_in_001_002+    27537.280127937134
Rh001_023_002-    i_023    tia_h_in_001_002-    119876.68191365177
Rh001_024_002+    i_024    tia_h_in_001_002+    25895.043599129433
Rh001_024_002-    i_024    tia_h_in_001_002-    120431.42344625675
Rh001_025_002+    i_025    tia_h_in_001_002+    53400.127319347885
Rh001_025_002-    i_025    tia_h_in_001_002-    5000
Rh001_026_002+    i_026    tia_h_in_001_002+    51519.2361083474
Rh001_026_002-    i_026    tia_h_in_001_002-    121506.54590763112
Rh001_027_002+    i_027    tia_h_in_001_002+    120762.31704315446
Rh001_027_002-    i_027    tia_h_in_001_002-    58256.769572446945
Rh001_028_002+    i_028    tia_h_in_001_002+    120960.13649939174
Rh001_028_002-    i_028    tia_h_in_001_002-    51488.761166624245
Rh001_029_002+    i_029    tia_h_in_001_002+    37841.995390097174
Rh001_029_002-    i_029    tia_h_in_001_002-    120930.71608948539
Rh001_030_002+    i_030    tia_h_in_001_002+    78557.22596637617
Rh001_030_002-    i_030    tia_h_in_001_002-    121919.91858830338
Rh001_031_002+    i_031    tia_h_in_001_002+    86243.34497664182
Rh001_031_002-    i_031    tia_h_in_001_002-    121372.53772876457
Rh001_032_002+    i_032    tia_h_in_001_002+    117629.28786533677
Rh001_032_002-    i_032    tia_h_in_001_002-    118978.59967686764
Rh001_033_002+    i_033    tia_h_in_001_002+    5000
Rh001_033_002-    i_033    tia_h_in_001_002-    119337.56261455132
Rh001_034_002+    i_034    tia_h_in_001_002+    55371.334880438895
Rh001_034_002-    i_034    tia_h_in_001_002-    5000
Rh001_035_002+    i_035    tia_h_in_001_002+    94669.56005628883
Rh001_035_002-    i_035    tia_h_in_001_002-    120284.07619211814
Rh001_036_002+    i_036    tia_h_in_001_002+    119779.26400485195
Rh001_036_002-    i_036    tia_h_in_001_002-    80534.49958293657
Rh001_037_002+    i_037    tia_h_in_001_002+    95082.5894970481
Rh001_037_002-    i_037    tia_h_in_001_002-    119507.93851797601
Rh001_038_002+    i_038    tia_h_in_001_002+    120163.810515824
Rh001_038_002-    i_038    tia_h_in_001_002-    70799.91047134368
Rh001_039_002+    i_039    tia_h_in_001_002+    120000
Rh001_039_002-    i_039    tia_h_in_001_002-    36830.27157437423
Rh001_040_002+    i_040    tia_h_in_001_002+    119360.86493603843
Rh001_040_002-    i_040    tia_h_in_001_002-    54575.51638461993
Rh001_041_002+    i_041    tia_h_in_001_002+    102522.56601684052
Rh001_041_002-    i_041    tia_h_in_001_002-    119552.94720866633
Rh001_042_002+    i_042    tia_h_in_001_002+    59608.534336693505
Rh001_042_002-    i_042    tia_h_in_001_002-    119447.60364910704
Rh001_043_002+    i_043    tia_h_in_001_002+    33263.64300092399
Rh001_043_002-    i_043    tia_h_in_001_002-    118693.33637250277
Rh001_044_002+    i_044    tia_h_in_001_002+    54201.70566578236
Rh001_044_002-    i_044    tia_h_in_001_002-    119956.40352209842
Rh001_045_002+    i_045    tia_h_in_001_002+    122836.19026190935
Rh001_045_002-    i_045    tia_h_in_001_002-    40600.337870123185
Rh001_046_002+    i_046    tia_h_in_001_002+    120701.52665218673
Rh001_046_002-    i_046    tia_h_in_001_002-    37884.659014952
Rh001_047_002+    i_047    tia_h_in_001_002+    120755.21380744262
Rh001_047_002-    i_047    tia_h_in_001_002-    71995.58251576943
Rh001_048_002+    i_048    tia_h_in_001_002+    120673.35468967493
Rh001_048_002-    i_048    tia_h_in_001_002-    82195.36838234804
Rh001_049_002+    i_049    tia_h_in_001_002+    118669.65498598573
Rh001_049_002-    i_049    tia_h_in_001_002-    50561.3833940703
Rh001_050_002+    i_050    tia_h_in_001_002+    117926.27405934242
Rh001_050_002-    i_050    tia_h_in_001_002-    92553.31410539684
Rh001_051_002+    i_051    tia_h_in_001_002+    118776.43971685552
Rh001_051_002-    i_051    tia_h_in_001_002-    82146.95683906639
Rh001_052_002+    i_052    tia_h_in_001_002+    120064.14512474021
Rh001_052_002-    i_052    tia_h_in_001_002-    91403.23958384457
Rh001_053_002+    i_053    tia_h_in_001_002+    121523.25805450027
Rh001_053_002-    i_053    tia_h_in_001_002-    80429.58020959025
Rh001_054_002+    i_054    tia_h_in_001_002+    54172.146330492236
Rh001_054_002-    i_054    tia_h_in_001_002-    119270.79835197376
Rh001_055_002+    i_055    tia_h_in_001_002+    120000
Rh001_055_002-    i_055    tia_h_in_001_002-    61229.19126031693
Rh001_056_002+    i_056    tia_h_in_001_002+    120577.35462419187
Rh001_056_002-    i_056    tia_h_in_001_002-    120000
Rh001_057_002+    i_057    tia_h_in_001_002+    122052.60758120246
Rh001_057_002-    i_057    tia_h_in_001_002-    5000
Rh001_058_002+    i_058    tia_h_in_001_002+    121098.95493620756
Rh001_058_002-    i_058    tia_h_in_001_002-    98693.05793021836
Rh001_059_002+    i_059    tia_h_in_001_002+    120257.75305601688
Rh001_059_002-    i_059    tia_h_in_001_002-    57253.80707325487
Rh001_060_002+    i_060    tia_h_in_001_002+    120969.00855613276
Rh001_060_002-    i_060    tia_h_in_001_002-    108728.48898013277
Rh001_061_002+    i_061    tia_h_in_001_002+    120000
Rh001_061_002-    i_061    tia_h_in_001_002-    119837.39796414689
Rh001_062_002+    i_062    tia_h_in_001_002+    72816.68134412458
Rh001_062_002-    i_062    tia_h_in_001_002-    119423.60623205609
Rh001_063_002+    i_063    tia_h_in_001_002+    5000
Rh001_063_002-    i_063    tia_h_in_001_002-    119446.52748243276
Rh001_064_002+    i_064    tia_h_in_001_002+    119073.58972069657
Rh001_064_002-    i_064    tia_h_in_001_002-    56740.36826677557

* Neuron 3
Rh001_001_003+    i_001    tia_h_in_001_003+    121281.7900333057
Rh001_001_003-    i_001    tia_h_in_001_003-    53868.30956484281
Rh001_002_003+    i_002    tia_h_in_001_003+    120845.06337933675
Rh001_002_003-    i_002    tia_h_in_001_003-    62371.400567458666
Rh001_003_003+    i_003    tia_h_in_001_003+    28030.444210011054
Rh001_003_003-    i_003    tia_h_in_001_003-    119897.91445131891
Rh001_004_003+    i_004    tia_h_in_001_003+    18105.73496034543
Rh001_004_003-    i_004    tia_h_in_001_003-    120805.06827609563
Rh001_005_003+    i_005    tia_h_in_001_003+    35792.48693603936
Rh001_005_003-    i_005    tia_h_in_001_003-    120148.55147328491