* Netlist that describe the physical circuit (components and connexions between them) to simulate, in Xyce formalism.
* To make the translation from any network size, the circuit is scaled up automatically using Jinja template engine.
*
* Xyce: https://xyce.sandia.gov
* Jinja: https://jinja.palletsprojects.com

* ======================== Simulation parameters ==========================

.TRAN 0.30ns 331.00ns

* OPTIONS TIMEINT change the time integration parameters
* ERROPTION (If 0 Local Truncation Error is used)
* METHOD: Time integration method
* NLMIN, NLMAX:  lower and upper bound for the desired number of nonlinear iterations
* DELMAX: The maximum time step-size used
* This additional line allows to fix convergence problem but increases the simulation time
* List variables to save in the result table
.PRINT TRAN V(sum_h_out_003_001) V(hidden_activ_out_h003_001)
+ V(i_001) V(i_002) V(i_003) V(i_004) V(i_005) V(i_006) V(i_007) V(i_008) V(i_009) V(i_010) V(i_011) V(i_012) V(i_013) V(i_014) V(i_015) V(i_016) V(i_017) V(i_018) V(i_019) V(i_020) V(i_021) V(i_022) V(i_023) V(i_024) V(i_025) V(i_026) V(i_027) V(i_028) V(i_029) V(i_030) V(i_031) V(i_032) V(i_033) V(i_034) V(i_035) V(i_036) V(i_037) V(i_038) V(i_039) V(i_040) V(i_041) V(i_042) V(i_043) V(i_044) V(i_045) V(i_046) V(i_047) V(i_048) V(i_049) V(i_050) V(i_051) V(i_052) V(i_053) V(i_054) V(i_055) V(i_056) V(i_057) V(i_058) V(i_059) V(i_060) V(i_061) V(i_062) V(i_063) V(i_064)
+ V(sum_h_out_001_001) V(hidden_activ_out_h001_001) V(sum_h_out_001_002) V(hidden_activ_out_h001_002) V(sum_h_out_001_003) V(hidden_activ_out_h001_003) V(sum_h_out_001_004) V(hidden_activ_out_h001_004) V(sum_h_out_001_005) V(hidden_activ_out_h001_005) V(sum_h_out_001_006) V(hidden_activ_out_h001_006) V(sum_h_out_001_007) V(hidden_activ_out_h001_007) V(sum_h_out_001_008) V(hidden_activ_out_h001_008) V(sum_h_out_001_009) V(hidden_activ_out_h001_009) V(sum_h_out_001_010) V(hidden_activ_out_h001_010) V(sum_h_out_001_011) V(hidden_activ_out_h001_011) V(sum_h_out_001_012) V(hidden_activ_out_h001_012) V(sum_h_out_001_013) V(hidden_activ_out_h001_013) V(sum_h_out_001_014) V(hidden_activ_out_h001_014) V(sum_h_out_001_015) V(hidden_activ_out_h001_015) V(sum_h_out_001_016) V(hidden_activ_out_h001_016) V(sum_h_out_001_017) V(hidden_activ_out_h001_017) V(sum_h_out_001_018) V(hidden_activ_out_h001_018) V(sum_h_out_001_019) V(hidden_activ_out_h001_019) V(sum_h_out_001_020) V(hidden_activ_out_h001_020)
+ V(tia_h_out_001_001+) V(tia_h_out_001_001-) V(tia_h_out_001_002+) V(tia_h_out_001_002-) V(tia_h_out_001_003+) V(tia_h_out_001_003-) V(tia_h_out_001_004+) V(tia_h_out_001_004-) V(tia_h_out_001_005+) V(tia_h_out_001_005-) V(tia_h_out_001_006+) V(tia_h_out_001_006-) V(tia_h_out_001_007+) V(tia_h_out_001_007-) V(tia_h_out_001_008+) V(tia_h_out_001_008-) V(tia_h_out_001_009+) V(tia_h_out_001_009-) V(tia_h_out_001_010+) V(tia_h_out_001_010-) V(tia_h_out_001_011+) V(tia_h_out_001_011-) V(tia_h_out_001_012+) V(tia_h_out_001_012-) V(tia_h_out_001_013+) V(tia_h_out_001_013-) V(tia_h_out_001_014+) V(tia_h_out_001_014-) V(tia_h_out_001_015+) V(tia_h_out_001_015-) V(tia_h_out_001_016+) V(tia_h_out_001_016-) V(tia_h_out_001_017+) V(tia_h_out_001_017-) V(tia_h_out_001_018+) V(tia_h_out_001_018-) V(tia_h_out_001_019+) V(tia_h_out_001_019-) V(tia_h_out_001_020+) V(tia_h_out_001_020-)
+ V(b_001)
+ V(sum_h_out_002_001) V(hidden_activ_out_h002_001) V(sum_h_out_002_002) V(hidden_activ_out_h002_002) V(sum_h_out_002_003) V(hidden_activ_out_h002_003) V(sum_h_out_002_004) V(hidden_activ_out_h002_004) V(sum_h_out_002_005) V(hidden_activ_out_h002_005) V(sum_h_out_002_006) V(hidden_activ_out_h002_006) V(sum_h_out_002_007) V(hidden_activ_out_h002_007) V(sum_h_out_002_008) V(hidden_activ_out_h002_008) V(sum_h_out_002_009) V(hidden_activ_out_h002_009) V(sum_h_out_002_010) V(hidden_activ_out_h002_010)
+ V(tia_h_out_002_001+) V(tia_h_out_002_001-) V(tia_h_out_002_002+) V(tia_h_out_002_002-) V(tia_h_out_002_003+) V(tia_h_out_002_003-) V(tia_h_out_002_004+) V(tia_h_out_002_004-) V(tia_h_out_002_005+) V(tia_h_out_002_005-) V(tia_h_out_002_006+) V(tia_h_out_002_006-) V(tia_h_out_002_007+) V(tia_h_out_002_007-) V(tia_h_out_002_008+) V(tia_h_out_002_008-) V(tia_h_out_002_009+) V(tia_h_out_002_009-) V(tia_h_out_002_010+) V(tia_h_out_002_010-)
+ V(b_002)
+ V(sum_h_out_003_001) V(hidden_activ_out_h003_001)
+ V(tia_h_out_003_001+) V(tia_h_out_003_001-)
+ V(b_003)

* =============================== Models ==================================

* Call the defined components model from the specified path
*.INCLUDE "./components/MAX4223.sub"
.INCLUDE "./components/TLV3501.sub"
*.INCLUDE "./components/OPA684.sub"

* Import custom sub-circuits
.INCLUDE "./components/activations.sub"
.INCLUDE "./components/lumped_line.sub"
.INCLUDE "./components/Sigmoid3_HA.spice"

* Define diode model
.MODEL D_BAV74_1 D( IS=2.073F N=1 BV=50 IBV=100N RS=1.336 
+      CJO=2P VJ=750M M=330M FC=500M TT=5.771N 
+      EG=1.11 XTI=3 KF=0 AF=1 )

* ============================== Voltages =================================

* ----- Input pulses
* Vi_num: The input voltage as pulse sequences
Vi_001    i_001    0    PWL 0.00ns 1.050V 1.00ns 1.050V 21.00ns 1.067V 281.00ns 1.067V 301.00ns 1.050V 381.00ns 1.050V
Vi_002    i_002    0    PWL 0.00ns 1.050V 1.00ns 1.050V 21.00ns 1.062V 281.00ns 1.062V 301.00ns 1.050V 381.00ns 1.050V
Vi_003    i_003    0    PWL 0.00ns 1.050V 1.00ns 1.050V 21.00ns 1.134V 281.00ns 1.134V 301.00ns 1.050V 381.00ns 1.050V
Vi_004    i_004    0    PWL 0.00ns 1.050V 1.00ns 1.050V 21.00ns 1.119V 281.00ns 1.119V 301.00ns 1.050V 381.00ns 1.050V
Vi_005    i_005    0    PWL 0.00ns 1.050V 1.00ns 1.050V 21.00ns 1.205V 281.00ns 1.205V 301.00ns 1.050V 381.00ns 1.050V
Vi_006    i_006    0    PWL 0.00ns 1.050V 1.00ns 1.050V 21.00ns 1.181V 281.00ns 1.181V 301.00ns 1.050V 381.00ns 1.050V
Vi_007    i_007    0    PWL 0.00ns 1.050V 1.00ns 1.050V 21.00ns 1.177V 281.00ns 1.177V 301.00ns 1.050V 381.00ns 1.050V
Vi_008    i_008    0    PWL 0.00ns 1.050V 1.00ns 1.050V 21.00ns 1.225V 281.00ns 1.225V 301.00ns 1.050V 381.00ns 1.050V
Vi_009    i_009    0    PWL 0.00ns 1.050V 1.00ns 1.050V 21.00ns 1.058V 281.00ns 1.058V 301.00ns 1.050V 381.00ns 1.050V
Vi_010    i_010    0    PWL 0.00ns 1.050V 1.00ns 1.050V 21.00ns 1.062V 281.00ns 1.062V 301.00ns 1.050V 381.00ns 1.050V
Vi_011    i_011    0    PWL 0.00ns 1.050V 1.00ns 1.050V 21.00ns 1.136V 281.00ns 1.136V 301.00ns 1.050V 381.00ns 1.050V
Vi_012    i_012    0    PWL 0.00ns 1.050V 1.00ns 1.050V 21.00ns 1.113V 281.00ns 1.113V 301.00ns 1.050V 381.00ns 1.050V
Vi_013    i_013    0    PWL 0.00ns 1.050V 1.00ns 1.050V 21.00ns 1.211V 281.00ns 1.211V 301.00ns 1.050V 381.00ns 1.050V
Vi_014    i_014    0    PWL 0.00ns 1.050V 1.00ns 1.050V 21.00ns 1.175V 281.00ns 1.175V 301.00ns 1.050V 381.00ns 1.050V
Vi_015    i_015    0    PWL 0.00ns 1.050V 1.00ns 1.050V 21.00ns 1.157V 281.00ns 1.157V 301.00ns 1.050V 381.00ns 1.050V
Vi_016    i_016    0    PWL 0.00ns 1.050V 1.00ns 1.050V 21.00ns 1.238V 281.00ns 1.238V 301.00ns 1.050V 381.00ns 1.050V
Vi_017    i_017    0    PWL 0.00ns 1.050V 1.00ns 1.050V 21.00ns 1.064V 281.00ns 1.064V 301.00ns 1.050V 381.00ns 1.050V
Vi_018    i_018    0    PWL 0.00ns 1.050V 1.00ns 1.050V 21.00ns 1.126V 281.00ns 1.126V 301.00ns 1.050V 381.00ns 1.050V
Vi_019    i_019    0    PWL 0.00ns 1.050V 1.00ns 1.050V 21.00ns 1.092V 281.00ns 1.092V 301.00ns 1.050V 381.00ns 1.050V
Vi_020    i_020    0    PWL 0.00ns 1.050V 1.00ns 1.050V 21.00ns 1.119V 281.00ns 1.119V 301.00ns 1.050V 381.00ns 1.050V
Vi_021    i_021    0    PWL 0.00ns 1.050V 1.00ns 1.050V 21.00ns 1.201V 281.00ns 1.201V 301.00ns 1.050V 381.00ns 1.050V
Vi_022    i_022    0    PWL 0.00ns 1.050V 1.00ns 1.050V 21.00ns 1.139V 281.00ns 1.139V 301.00ns 1.050V 381.00ns 1.050V
Vi_023    i_023    0    PWL 0.00ns 1.050V 1.00ns 1.050V 21.00ns 1.113V 281.00ns 1.113V 301.00ns 1.050V 381.00ns 1.050V
Vi_024    i_024    0    PWL 0.00ns 1.050V 1.00ns 1.050V 21.00ns 1.278V 281.00ns 1.278V 301.00ns 1.050V 381.00ns 1.050V
Vi_025    i_025    0    PWL 0.00ns 1.050V 1.00ns 1.050V 21.00ns 1.050V 281.00ns 1.050V 301.00ns 1.050V 381.00ns 1.050V
Vi_026    i_026    0    PWL 0.00ns 1.050V 1.00ns 1.050V 21.00ns 1.146V 281.00ns 1.146V 301.00ns 1.050V 381.00ns 1.050V
Vi_027    i_027    0    PWL 0.00ns 1.050V 1.00ns 1.050V 21.00ns 1.135V 281.00ns 1.135V 301.00ns 1.050V 381.00ns 1.050V
Vi_028    i_028    0    PWL 0.00ns 1.050V 1.00ns 1.050V 21.00ns 1.162V 281.00ns 1.162V 301.00ns 1.050V 381.00ns 1.050V
Vi_029    i_029    0    PWL 0.00ns 1.050V 1.00ns 1.050V 21.00ns 1.212V 281.00ns 1.212V 301.00ns 1.050V 381.00ns 1.050V
Vi_030    i_030    0    PWL 0.00ns 1.050V 1.00ns 1.050V 21.00ns 1.178V 281.00ns 1.178V 301.00ns 1.050V 381.00ns 1.050V
Vi_031    i_031    0    PWL 0.00ns 1.050V 1.00ns 1.050V 21.00ns 1.149V 281.00ns 1.149V 301.00ns 1.050V 381.00ns 1.050V
Vi_032    i_032    0    PWL 0.00ns 1.050V 1.00ns 1.050V 21.00ns 1.296V 281.00ns 1.296V 301.00ns 1.050V 381.00ns 1.050V
Vi_033    i_033    0    PWL 0.00ns 1.050V 1.00ns 1.050V 21.00ns 1.063V 281.00ns 1.063V 301.00ns 1.050V 381.00ns 1.050V
Vi_034    i_034    0    PWL 0.00ns 1.050V 1.00ns 1.050V 21.00ns 1.135V 281.00ns 1.135V 301.00ns 1.050V 381.00ns 1.050V
Vi_035    i_035    0    PWL 0.00ns 1.050V 1.00ns 1.050V 21.00ns 1.129V 281.00ns 1.129V 301.00ns 1.050V 381.00ns 1.050V
Vi_036    i_036    0    PWL 0.00ns 1.050V 1.00ns 1.050V 21.00ns 1.202V 281.00ns 1.202V 301.00ns 1.050V 381.00ns 1.050V
Vi_037    i_037    0    PWL 0.00ns 1.050V 1.00ns 1.050V 21.00ns 1.252V 281.00ns 1.252V 301.00ns 1.050V 381.00ns 1.050V
Vi_038    i_038    0    PWL 0.00ns 1.050V 1.00ns 1.050V 21.00ns 1.208V 281.00ns 1.208V 301.00ns 1.050V 381.00ns 1.050V
Vi_039    i_039    0    PWL 0.00ns 1.050V 1.00ns 1.050V 21.00ns 1.138V 281.00ns 1.138V 301.00ns 1.050V 381.00ns 1.050V
Vi_040    i_040    0    PWL 0.00ns 1.050V 1.00ns 1.050V 21.00ns 1.295V 281.00ns 1.295V 301.00ns 1.050V 381.00ns 1.050V
Vi_041    i_041    0    PWL 0.00ns 1.050V 1.00ns 1.050V 21.00ns 1.108V 281.00ns 1.108V 301.00ns 1.050V 381.00ns 1.050V
Vi_042    i_042    0    PWL 0.00ns 1.050V 1.00ns 1.050V 21.00ns 1.128V 281.00ns 1.128V 301.00ns 1.050V 381.00ns 1.050V
Vi_043    i_043    0    PWL 0.00ns 1.050V 1.00ns 1.050V 21.00ns 1.144V 281.00ns 1.144V 301.00ns 1.050V 381.00ns 1.050V
Vi_044    i_044    0    PWL 0.00ns 1.050V 1.00ns 1.050V 21.00ns 1.200V 281.00ns 1.200V 301.00ns 1.050V 381.00ns 1.050V
Vi_045    i_045    0    PWL 0.00ns 1.050V 1.00ns 1.050V 21.00ns 1.257V 281.00ns 1.257V 301.00ns 1.050V 381.00ns 1.050V
Vi_046    i_046    0    PWL 0.00ns 1.050V 1.00ns 1.050V 21.00ns 1.199V 281.00ns 1.199V 301.00ns 1.050V 381.00ns 1.050V
Vi_047    i_047    0    PWL 0.00ns 1.050V 1.00ns 1.050V 21.00ns 1.220V 281.00ns 1.220V 301.00ns 1.050V 381.00ns 1.050V
Vi_048    i_048    0    PWL 0.00ns 1.050V 1.00ns 1.050V 21.00ns 1.298V 281.00ns 1.298V 301.00ns 1.050V 381.00ns 1.050V
Vi_049    i_049    0    PWL 0.00ns 1.050V 1.00ns 1.050V 21.00ns 1.102V 281.00ns 1.102V 301.00ns 1.050V 381.00ns 1.050V
Vi_050    i_050    0    PWL 0.00ns 1.050V 1.00ns 1.050V 21.00ns 1.115V 281.00ns 1.115V 301.00ns 1.050V 381.00ns 1.050V
Vi_051    i_051    0    PWL 0.00ns 1.050V 1.00ns 1.050V 21.00ns 1.152V 281.00ns 1.152V 301.00ns 1.050V 381.00ns 1.050V
Vi_052    i_052    0    PWL 0.00ns 1.050V 1.00ns 1.050V 21.00ns 1.195V 281.00ns 1.195V 301.00ns 1.050V 381.00ns 1.050V
Vi_053    i_053    0    PWL 0.00ns 1.050V 1.00ns 1.050V 21.00ns 1.258V 281.00ns 1.258V 301.00ns 1.050V 381.00ns 1.050V
Vi_054    i_054    0    PWL 0.00ns 1.050V 1.00ns 1.050V 21.00ns 1.188V 281.00ns 1.188V 301.00ns 1.050V 381.00ns 1.050V
Vi_055    i_055    0    PWL 0.00ns 1.050V 1.00ns 1.050V 21.00ns 1.228V 281.00ns 1.228V 301.00ns 1.050V 381.00ns 1.050V
Vi_056    i_056    0    PWL 0.00ns 1.050V 1.00ns 1.050V 21.00ns 1.313V 281.00ns 1.313V 301.00ns 1.050V 381.00ns 1.050V
Vi_057    i_057    0    PWL 0.00ns 1.050V 1.00ns 1.050V 21.00ns 1.087V 281.00ns 1.087V 301.00ns 1.050V 381.00ns 1.050V
Vi_058    i_058    0    PWL 0.00ns 1.050V 1.00ns 1.050V 21.00ns 1.146V 281.00ns 1.146V 301.00ns 1.050V 381.00ns 1.050V
Vi_059    i_059    0    PWL 0.00ns 1.050V 1.00ns 1.050V 21.00ns 1.166V 281.00ns 1.166V 301.00ns 1.050V 381.00ns 1.050V
Vi_060    i_060    0    PWL 0.00ns 1.050V 1.00ns 1.050V 21.00ns 1.199V 281.00ns 1.199V 301.00ns 1.050V 381.00ns 1.050V
Vi_061    i_061    0    PWL 0.00ns 1.050V 1.00ns 1.050V 21.00ns 1.274V 281.00ns 1.274V 301.00ns 1.050V 381.00ns 1.050V
Vi_062    i_062    0    PWL 0.00ns 1.050V 1.00ns 1.050V 21.00ns 1.200V 281.00ns 1.200V 301.00ns 1.050V 381.00ns 1.050V
Vi_063    i_063    0    PWL 0.00ns 1.050V 1.00ns 1.050V 21.00ns 1.208V 281.00ns 1.208V 301.00ns 1.050V 381.00ns 1.050V
Vi_064    i_064    0    PWL 0.00ns 1.050V 1.00ns 1.050V 21.00ns 1.350V 281.00ns 1.350V 301.00ns 1.050V 381.00ns 1.050V

* Vb_num: The bias voltage as pulse sequences

Vb_001    b_001    0    PWL 0.00ns 1.050V 1.00ns 1.050V 21.00ns 1.350V 281.00ns 1.350V 301.00ns 1.050V 381.00ns 1.050V
Vb_002    b_002    0    PWL 0.00ns 1.050V 11.00ns 1.050V 31.00ns 1.350V 291.00ns 1.350V 311.00ns 1.050V 391.00ns 1.050V
Vb_003    b_003    0    PWL 0.00ns 1.050V 21.00ns 1.050V 41.00ns 1.350V 301.00ns 1.350V 321.00ns 1.050V 401.00ns 1.050V

Ve        Ve       0    3
Vcc-      Vcc-     0    -5
Vcc+      Vcc+     0    5

* ============================ NN Parameters ==============================
* Parameters (weights and bias) naming convention: "Rl_i_j+" where:
*   R: Always "R" to inform Xyce it is a resistance
*   l: layer name, "h" for the hidden and output layers and "b" for the biases.
*   i: index of the weight of a neuron (start from 1)
*   j: index of the neuron (start from 1)
*   +: parameter polarity, + or -

* ----------------------------- Layers -----------------------------


* ----- Weights
* Layer 001

* Neuron 1
Rh001_001_001+    i_001    tia_h_in_001_001+    1210291.6352100708
Rh001_001_001-    i_001    tia_h_in_001_001-    51168.65281430691
Rh001_002_001+    i_002    tia_h_in_001_001+    1200681.639911038
Rh001_002_001-    i_002    tia_h_in_001_001-    42935.18402169747
Rh001_003_001+    i_003    tia_h_in_001_001+    111788.69723541531
Rh001_003_001-    i_003    tia_h_in_001_001-    1210338.5870977656
Rh001_004_001+    i_004    tia_h_in_001_001+    31464.77555878573
Rh001_004_001-    i_004    tia_h_in_001_001-    1189670.6792834178
Rh001_005_001+    i_005    tia_h_in_001_001+    26839.332857066107
Rh001_005_001-    i_005    tia_h_in_001_001-    1202835.956879755
Rh001_006_001+    i_006    tia_h_in_001_001+    33784.465329281455
Rh001_006_001-    i_006    tia_h_in_001_001-    1197439.4368922987
Rh001_007_001+    i_007    tia_h_in_001_001+    364953.3508063329
Rh001_007_001-    i_007    tia_h_in_001_001-    1201822.96121053
Rh001_008_001+    i_008    tia_h_in_001_001+    1192560.9752044221
Rh001_008_001-    i_008    tia_h_in_001_001-    306041.24189934117
Rh001_009_001+    i_009    tia_h_in_001_001+    224743.46620107105
Rh001_009_001-    i_009    tia_h_in_001_001-    1212004.6784558385
Rh001_010_001+    i_010    tia_h_in_001_001+    77198.6535396235
Rh001_010_001-    i_010    tia_h_in_001_001-    1211162.5447396631
Rh001_011_001+    i_011    tia_h_in_001_001+    36451.77495963238
Rh001_011_001-    i_011    tia_h_in_001_001-    1206367.1703335175
Rh001_012_001+    i_012    tia_h_in_001_001+    45350.7952886812
Rh001_012_001-    i_012    tia_h_in_001_001-    1199157.1564731402
Rh001_013_001+    i_013    tia_h_in_001_001+    67824.13848369135
Rh001_013_001-    i_013    tia_h_in_001_001-    1207495.533152037
Rh001_014_001+    i_014    tia_h_in_001_001+    1206173.407461235
Rh001_014_001-    i_014    tia_h_in_001_001-    362584.6976516861
Rh001_015_001+    i_015    tia_h_in_001_001+    1193226.6258906464
Rh001_015_001-    i_015    tia_h_in_001_001-    71231.64246786617
Rh001_016_001+    i_016    tia_h_in_001_001+    301733.13166284224
Rh001_016_001-    i_016    tia_h_in_001_001-    1210030.6710904636
Rh001_017_001+    i_017    tia_h_in_001_001+    1183783.2280535267
Rh001_017_001-    i_017    tia_h_in_001_001-    342090.1435229167
Rh001_018_001+    i_018    tia_h_in_001_001+    48377.55622527674
Rh001_018_001-    i_018    tia_h_in_001_001-    1190159.4465609612
Rh001_019_001+    i_019    tia_h_in_001_001+    64260.399002878956
Rh001_019_001-    i_019    tia_h_in_001_001-    1195975.075737011
Rh001_020_001+    i_020    tia_h_in_001_001+    31249.91296840082
Rh001_020_001-    i_020    tia_h_in_001_001-    1201078.946401058
Rh001_021_001+    i_021    tia_h_in_001_001+    103396.5141276146
Rh001_021_001-    i_021    tia_h_in_001_001-    1196156.702665817
Rh001_022_001+    i_022    tia_h_in_001_001+    1192938.8405307175
Rh001_022_001-    i_022    tia_h_in_001_001-    1024705.4573087909
Rh001_023_001+    i_023    tia_h_in_001_001+    596145.5392587036
Rh001_023_001-    i_023    tia_h_in_001_001-    1212107.30134822
Rh001_024_001+    i_024    tia_h_in_001_001+    1207513.5745084644
Rh001_024_001-    i_024    tia_h_in_001_001-    85686.2114856623
Rh001_025_001+    i_025    tia_h_in_001_001+    42474.13241256794
Rh001_025_001-    i_025    tia_h_in_001_001-    1190210.168892969
Rh001_026_001+    i_026    tia_h_in_001_001+    68010.08831596846
Rh001_026_001-    i_026    tia_h_in_001_001-    1186946.601905285
Rh001_027_001+    i_027    tia_h_in_001_001+    36064.10027850669
Rh001_027_001-    i_027    tia_h_in_001_001-    1189606.51384503
Rh001_028_001+    i_028    tia_h_in_001_001+    109148.44009011252
Rh001_028_001-    i_028    tia_h_in_001_001-    1217570.9400798022
Rh001_029_001+    i_029    tia_h_in_001_001+    1183178.407029879
Rh001_029_001-    i_029    tia_h_in_001_001-    130802.10507408819
Rh001_030_001+    i_030    tia_h_in_001_001+    1207810.0254754906
Rh001_030_001-    i_030    tia_h_in_001_001-    186176.91612118453
Rh001_031_001+    i_031    tia_h_in_001_001+    151705.1691848081
Rh001_031_001-    i_031    tia_h_in_001_001-    1202806.690945192
Rh001_032_001+    i_032    tia_h_in_001_001+    82199.72835941694
Rh001_032_001-    i_032    tia_h_in_001_001-    1182165.9987440365
Rh001_033_001+    i_033    tia_h_in_001_001+    85868.48089642792
Rh001_033_001-    i_033    tia_h_in_001_001-    1191037.1799881114
Rh001_034_001+    i_034    tia_h_in_001_001+    62548.89371967282
Rh001_034_001-    i_034    tia_h_in_001_001-    1184768.7889973202
Rh001_035_001+    i_035    tia_h_in_001_001+    147598.84571572972
Rh001_035_001-    i_035    tia_h_in_001_001-    1199932.7658445186
Rh001_036_001+    i_036    tia_h_in_001_001+    189440.55350674552
Rh001_036_001-    i_036    tia_h_in_001_001-    1175976.6591252568
Rh001_037_001+    i_037    tia_h_in_001_001+    262878.1350124112
Rh001_037_001-    i_037    tia_h_in_001_001-    1178978.5692287923
Rh001_038_001+    i_038    tia_h_in_001_001+    1208346.6672490975
Rh001_038_001-    i_038    tia_h_in_001_001-    354570.1171832381
Rh001_039_001+    i_039    tia_h_in_001_001+    745012.7576700136
Rh001_039_001-    i_039    tia_h_in_001_001-    1201564.2300286987
Rh001_040_001+    i_040    tia_h_in_001_001+    67226.74169754918
Rh001_040_001-    i_040    tia_h_in_001_001-    1187716.3829978292
Rh001_041_001+    i_041    tia_h_in_001_001+    56284.40770129444
Rh001_041_001-    i_041    tia_h_in_001_001-    1211825.20665206
Rh001_042_001+    i_042    tia_h_in_001_001+    1196915.1131744212
Rh001_042_001-    i_042    tia_h_in_001_001-    750503.7699444193
Rh001_043_001+    i_043    tia_h_in_001_001+    145652.96462084717
Rh001_043_001-    i_043    tia_h_in_001_001-    1194235.3647104267
Rh001_044_001+    i_044    tia_h_in_001_001+    1207554.4540835212
Rh001_044_001-    i_044    tia_h_in_001_001-    71015.11716845162
Rh001_045_001+    i_045    tia_h_in_001_001+    1189914.5381286195
Rh001_045_001-    i_045    tia_h_in_001_001-    1020311.7646466356
Rh001_046_001+    i_046    tia_h_in_001_001+    1199509.8030631982
Rh001_046_001-    i_046    tia_h_in_001_001-    398724.15352550993
Rh001_047_001+    i_047    tia_h_in_001_001+    77211.41890180997
Rh001_047_001-    i_047    tia_h_in_001_001-    1191862.3227856355
Rh001_048_001+    i_048    tia_h_in_001_001+    112037.05848665211
Rh001_048_001-    i_048    tia_h_in_001_001-    1199783.312552204
Rh001_049_001+    i_049    tia_h_in_001_001+    53106.60081790435
Rh001_049_001-    i_049    tia_h_in_001_001-    1181785.0518363973
Rh001_050_001+    i_050    tia_h_in_001_001+    51304.33328944812
Rh001_050_001-    i_050    tia_h_in_001_001-    1206887.708189354
Rh001_051_001+    i_051    tia_h_in_001_001+    212617.77102042915
Rh001_051_001-    i_051    tia_h_in_001_001-    1199923.9469474829
Rh001_052_001+    i_052    tia_h_in_001_001+    1194127.4813510953
Rh001_052_001-    i_052    tia_h_in_001_001-    404168.17792081647
Rh001_053_001+    i_053    tia_h_in_001_001+    1199177.596090793
Rh001_053_001-    i_053    tia_h_in_001_001-    147301.8972151937
Rh001_054_001+    i_054    tia_h_in_001_001+    1213637.2487882723
Rh001_054_001-    i_054    tia_h_in_001_001-    80932.47693338456
Rh001_055_001+    i_055    tia_h_in_001_001+    86606.5943969387
Rh001_055_001-    i_055    tia_h_in_001_001-    1197851.5995284826
Rh001_056_001+    i_056    tia_h_in_001_001+    1207248.7237827345
Rh001_056_001-    i_056    tia_h_in_001_001-    467332.8358282316
Rh001_057_001+    i_057    tia_h_in_001_001+    64338.07530044639
Rh001_057_001-    i_057    tia_h_in_001_001-    1191716.4052503044
Rh001_058_001+    i_058    tia_h_in_001_001+    218252.58902325408
Rh001_058_001-    i_058    tia_h_in_001_001-    1208439.6541885124
Rh001_059_001+    i_059    tia_h_in_001_001+    1205416.388758054
Rh001_059_001-    i_059    tia_h_in_001_001-    37043.46681150151
Rh001_060_001+    i_060    tia_h_in_001_001+    1197253.814517345
Rh001_060_001-    i_060    tia_h_in_001_001-    39157.48824973739
Rh001_061_001+    i_061    tia_h_in_001_001+    169464.05410001354
Rh001_061_001-    i_061    tia_h_in_001_001-    1210849.19115528
Rh001_062_001+    i_062    tia_h_in_001_001+    46872.15327338488
Rh001_062_001-    i_062    tia_h_in_001_001-    1209998.4715851697
Rh001_063_001+    i_063    tia_h_in_001_001+    32346.032277687947
Rh001_063_001-    i_063    tia_h_in_001_001-    1207274.230604788
Rh001_064_001+    i_064    tia_h_in_001_001+    37756.93972648275
Rh001_064_001-    i_064    tia_h_in_001_001-    1209293.7680338477

* Neuron 2
Rh001_001_002+    i_001    tia_h_in_001_002+    1200417.2208607257
Rh001_001_002-    i_001    tia_h_in_001_002-    69665.74350332802
Rh001_002_002+    i_002    tia_h_in_001_002+    1187356.5588811084
Rh001_002_002-    i_002    tia_h_in_001_002-    58513.70509059696
Rh001_003_002+    i_003    tia_h_in_001_002+    1197005.2622277378
Rh001_003_002-    i_003    tia_h_in_001_002-    369446.6924583857
Rh001_004_002+    i_004    tia_h_in_001_002+    1220884.3106261261
Rh001_004_002-    i_004    tia_h_in_001_002-    147809.2772272393
Rh001_005_002+    i_005    tia_h_in_001_002+    1017744.8347043344
Rh001_005_002-    i_005    tia_h_in_001_002-    1220297.1071118512
Rh001_006_002+    i_006    tia_h_in_001_002+    1178306.7010614849
Rh001_006_002-    i_006    tia_h_in_001_002-    76674.87761930327
Rh001_007_002+    i_007    tia_h_in_001_002+    1209313.3951743871
Rh001_007_002-    i_007    tia_h_in_001_002-    60944.14738191356
Rh001_008_002+    i_008    tia_h_in_001_002+    1215395.653411412
Rh001_008_002-    i_008    tia_h_in_001_002-    87633.11801305368
Rh001_009_002+    i_009    tia_h_in_001_002+    1206597.7217700975
Rh001_009_002-    i_009    tia_h_in_001_002-    48259.43474034904
Rh001_010_002+    i_010    tia_h_in_001_002+    49763.87031983808
Rh001_010_002-    i_010    tia_h_in_001_002-    1205777.3638753796
Rh001_011_002+    i_011    tia_h_in_001_002+    342768.09527480206
Rh001_011_002-    i_011    tia_h_in_001_002-    1213153.349808927
Rh001_012_002+    i_012    tia_h_in_001_002+    47692.753998457665
Rh001_012_002-    i_012    tia_h_in_001_002-    1201254.1991495655
Rh001_013_002+    i_013    tia_h_in_001_002+    112657.90540804053
Rh001_013_002-    i_013    tia_h_in_001_002-    1204518.2107751435
Rh001_014_002+    i_014    tia_h_in_001_002+    167863.68022435083
Rh001_014_002-    i_014    tia_h_in_001_002-    1191944.807823131
Rh001_015_002+    i_015    tia_h_in_001_002+    65642.50138018552
Rh001_015_002-    i_015    tia_h_in_001_002-    1195395.99314813
Rh001_016_002+    i_016    tia_h_in_001_002+    73064.0053424826
Rh001_016_002-    i_016    tia_h_in_001_002-    1205910.2034360308
Rh001_017_002+    i_017    tia_h_in_001_002+    35369.00624070411
Rh001_017_002-    i_017    tia_h_in_001_002-    1202478.4979455238
Rh001_018_002+    i_018    tia_h_in_001_002+    1193543.4471887057
Rh001_018_002-    i_018    tia_h_in_001_002-    1060208.895838077
Rh001_019_002+    i_019    tia_h_in_001_002+    127497.01239272056
Rh001_019_002-    i_019    tia_h_in_001_002-    1194643.5753544369
Rh001_020_002+    i_020    tia_h_in_001_002+    593376.7164217959
Rh001_020_002-    i_020    tia_h_in_001_002-    1200342.2209773164
Rh001_021_002+    i_021    tia_h_in_001_002+    101314.96750073957
Rh001_021_002-    i_021    tia_h_in_001_002-    1197392.7779992109
Rh001_022_002+    i_022    tia_h_in_001_002+    43769.26907270632
Rh001_022_002-    i_022    tia_h_in_001_002-    1193052.9867934731
Rh001_023_002+    i_023    tia_h_in_001_002+    32365.21254874418
Rh001_023_002-    i_023    tia_h_in_001_002-    1195338.4500740927
Rh001_024_002+    i_024    tia_h_in_001_002+    29957.651844513683
Rh001_024_002-    i_024    tia_h_in_001_002-    1194223.4606977617
Rh001_025_002+    i_025    tia_h_in_001_002+    61966.14310672303
Rh001_025_002-    i_025    tia_h_in_001_002-    1185549.6817385291
Rh001_026_002+    i_026    tia_h_in_001_002+    59373.32675029642
Rh001_026_002-    i_026    tia_h_in_001_002-    1224347.1283454194
Rh001_027_002+    i_027    tia_h_in_001_002+    1201745.42346362
Rh001_027_002-    i_027    tia_h_in_001_002-    490215.4491813436
Rh001_028_002+    i_028    tia_h_in_001_002+    1188027.2825148213
Rh001_028_002-    i_028    tia_h_in_001_002-    259724.1074431308
Rh001_029_002+    i_029    tia_h_in_001_002+    43273.43249891831
Rh001_029_002-    i_029    tia_h_in_001_002-    1201444.5734083373
Rh001_030_002+    i_030    tia_h_in_001_002+    90457.46088071147
Rh001_030_002-    i_030    tia_h_in_001_002-    1201968.1200838403
Rh001_031_002+    i_031    tia_h_in_001_002+    99392.72096167438
Rh001_031_002-    i_031    tia_h_in_001_002-    1203016.1364521256
Rh001_032_002+    i_032    tia_h_in_001_002+    135043.5503804024
Rh001_032_002-    i_032    tia_h_in_001_002-    1175960.8690476383
Rh001_033_002+    i_033    tia_h_in_001_002+    71835.33198855944
Rh001_033_002-    i_033    tia_h_in_001_002-    1206625.8540113957
Rh001_034_002+    i_034    tia_h_in_001_002+    63554.508790118234
Rh001_034_002-    i_034    tia_h_in_001_002-    1194275.7672627014
Rh001_035_002+    i_035    tia_h_in_001_002+    107172.49321766598
Rh001_035_002-    i_035    tia_h_in_001_002-    1201821.8356661848
Rh001_036_002+    i_036    tia_h_in_001_002+    260788.54313601248
Rh001_036_002-    i_036    tia_h_in_001_002-    1185370.5574523748
Rh001_037_002+    i_037    tia_h_in_001_002+    109761.30445877094
Rh001_037_002-    i_037    tia_h_in_001_002-    1189214.046414677
Rh001_038_002+    i_038    tia_h_in_001_002+    453279.47875770554
Rh001_038_002-    i_038    tia_h_in_001_002-    1213434.7366748035
Rh001_039_002+    i_039    tia_h_in_001_002+    1219560.6425165392
Rh001_039_002-    i_039    tia_h_in_001_002-    94010.5080593205
Rh001_040_002+    i_040    tia_h_in_001_002+    1210310.398449774
Rh001_040_002-    i_040    tia_h_in_001_002-    338782.0414377052
Rh001_041_002+    i_041    tia_h_in_001_002+    118012.8947159614
Rh001_041_002-    i_041    tia_h_in_001_002-    1192303.6223777398
Rh001_042_002+    i_042    tia_h_in_001_002+    68017.31122195367
Rh001_042_002-    i_042    tia_h_in_001_002-    1203688.4313094744
Rh001_043_002+    i_043    tia_h_in_001_002+    38920.35458624248
Rh001_043_002-    i_043    tia_h_in_001_002-    1204313.6498455354
Rh001_044_002+    i_044    tia_h_in_001_002+    63417.21444046644
Rh001_044_002-    i_044    tia_h_in_001_002-    1203946.279426887
Rh001_045_002+    i_045    tia_h_in_001_002+    1195239.5429126006
Rh001_045_002-    i_045    tia_h_in_001_002-    121793.25294028445
Rh001_046_002+    i_046    tia_h_in_001_002+    1223934.2463613376
Rh001_046_002-    i_046    tia_h_in_001_002-    100539.69549003265
Rh001_047_002+    i_047    tia_h_in_001_002+    439241.8365332938
Rh001_047_002-    i_047    tia_h_in_001_002-    1189499.789949707
Rh001_048_002+    i_048    tia_h_in_001_002+    246842.32288579678
Rh001_048_002-    i_048    tia_h_in_001_002-    1213257.9798868343
Rh001_049_002+    i_049    tia_h_in_001_002+    1201765.6442865497
Rh001_049_002-    i_049    tia_h_in_001_002-    243454.11122235618
Rh001_050_002+    i_050    tia_h_in_001_002+    196815.32139523813
Rh001_050_002-    i_050    tia_h_in_001_002-    1184491.6171497582
Rh001_051_002+    i_051    tia_h_in_001_002+    262780.8433604103
Rh001_051_002-    i_051    tia_h_in_001_002-    1206800.154061051
Rh001_052_002+    i_052    tia_h_in_001_002+    194142.33831210222
Rh001_052_002-    i_052    tia_h_in_001_002-    1194089.9567812204
Rh001_053_002+    i_053    tia_h_in_001_002+    258934.05497093848
Rh001_053_002-    i_053    tia_h_in_001_002-    1197833.502390502
Rh001_054_002+    i_054    tia_h_in_001_002+    62681.57959044636
Rh001_054_002-    i_054    tia_h_in_001_002-    1202779.3577636036
Rh001_055_002+    i_055    tia_h_in_001_002+    1195848.7828560825
Rh001_055_002-    i_055    tia_h_in_001_002-    779784.2191450045
Rh001_056_002+    i_056    tia_h_in_001_002+    1206898.5107095442
Rh001_056_002-    i_056    tia_h_in_001_002-    96558.85152466626
Rh001_057_002+    i_057    tia_h_in_001_002+    175614.514933384
Rh001_057_002-    i_057    tia_h_in_001_002-    1196084.71367332
Rh001_058_002+    i_058    tia_h_in_001_002+    171743.4538753305
Rh001_058_002-    i_058    tia_h_in_001_002-    1194078.080203219