* Netlist that describe the physical circuit (components and connexions between them) to simulate, in Xyce formalism.
* To make the translation from any network size, the circuit is scaled up automatically using Jinja template engine.
*
* Xyce: https://xyce.sandia.gov
* Jinja: https://jinja.palletsprojects.com

* ======================== Simulation parameters ==========================

.TRAN 0.30ns 331.00ns

* OPTIONS TIMEINT change the time integration parameters
* ERROPTION (If 0 Local Truncation Error is used)
* METHOD: Time integration method
* NLMIN, NLMAX:  lower and upper bound for the desired number of nonlinear iterations
* DELMAX: The maximum time step-size used
* This additional line allows to fix convergence problem but increases the simulation time
* List variables to save in the result table
.PRINT TRAN V(sum_h_out_003_001) V(hidden_activ_out_h003_001)
+ V(i_001) V(i_002) V(i_003) V(i_004) V(i_005) V(i_006) V(i_007) V(i_008) V(i_009) V(i_010) V(i_011) V(i_012) V(i_013) V(i_014) V(i_015) V(i_016) V(i_017) V(i_018) V(i_019) V(i_020) V(i_021) V(i_022) V(i_023) V(i_024) V(i_025) V(i_026) V(i_027) V(i_028) V(i_029) V(i_030) V(i_031) V(i_032) V(i_033) V(i_034) V(i_035) V(i_036) V(i_037) V(i_038) V(i_039) V(i_040) V(i_041) V(i_042) V(i_043) V(i_044) V(i_045) V(i_046) V(i_047) V(i_048) V(i_049) V(i_050) V(i_051) V(i_052) V(i_053) V(i_054) V(i_055) V(i_056) V(i_057) V(i_058) V(i_059) V(i_060) V(i_061) V(i_062) V(i_063) V(i_064)
+ V(sum_h_out_001_001) V(hidden_activ_out_h001_001) V(sum_h_out_001_002) V(hidden_activ_out_h001_002) V(sum_h_out_001_003) V(hidden_activ_out_h001_003) V(sum_h_out_001_004) V(hidden_activ_out_h001_004) V(sum_h_out_001_005) V(hidden_activ_out_h001_005) V(sum_h_out_001_006) V(hidden_activ_out_h001_006) V(sum_h_out_001_007) V(hidden_activ_out_h001_007) V(sum_h_out_001_008) V(hidden_activ_out_h001_008) V(sum_h_out_001_009) V(hidden_activ_out_h001_009) V(sum_h_out_001_010) V(hidden_activ_out_h001_010) V(sum_h_out_001_011) V(hidden_activ_out_h001_011) V(sum_h_out_001_012) V(hidden_activ_out_h001_012) V(sum_h_out_001_013) V(hidden_activ_out_h001_013) V(sum_h_out_001_014) V(hidden_activ_out_h001_014) V(sum_h_out_001_015) V(hidden_activ_out_h001_015) V(sum_h_out_001_016) V(hidden_activ_out_h001_016) V(sum_h_out_001_017) V(hidden_activ_out_h001_017) V(sum_h_out_001_018) V(hidden_activ_out_h001_018) V(sum_h_out_001_019) V(hidden_activ_out_h001_019) V(sum_h_out_001_020) V(hidden_activ_out_h001_020)
+ V(tia_h_out_001_001+) V(tia_h_out_001_001-) V(tia_h_out_001_002+) V(tia_h_out_001_002-) V(tia_h_out_001_003+) V(tia_h_out_001_003-) V(tia_h_out_001_004+) V(tia_h_out_001_004-) V(tia_h_out_001_005+) V(tia_h_out_001_005-) V(tia_h_out_001_006+) V(tia_h_out_001_006-) V(tia_h_out_001_007+) V(tia_h_out_001_007-) V(tia_h_out_001_008+) V(tia_h_out_001_008-) V(tia_h_out_001_009+) V(tia_h_out_001_009-) V(tia_h_out_001_010+) V(tia_h_out_001_010-) V(tia_h_out_001_011+) V(tia_h_out_001_011-) V(tia_h_out_001_012+) V(tia_h_out_001_012-) V(tia_h_out_001_013+) V(tia_h_out_001_013-) V(tia_h_out_001_014+) V(tia_h_out_001_014-) V(tia_h_out_001_015+) V(tia_h_out_001_015-) V(tia_h_out_001_016+) V(tia_h_out_001_016-) V(tia_h_out_001_017+) V(tia_h_out_001_017-) V(tia_h_out_001_018+) V(tia_h_out_001_018-) V(tia_h_out_001_019+) V(tia_h_out_001_019-) V(tia_h_out_001_020+) V(tia_h_out_001_020-)
+ V(b_001)
+ V(sum_h_out_002_001) V(hidden_activ_out_h002_001) V(sum_h_out_002_002) V(hidden_activ_out_h002_002) V(sum_h_out_002_003) V(hidden_activ_out_h002_003) V(sum_h_out_002_004) V(hidden_activ_out_h002_004) V(sum_h_out_002_005) V(hidden_activ_out_h002_005) V(sum_h_out_002_006) V(hidden_activ_out_h002_006) V(sum_h_out_002_007) V(hidden_activ_out_h002_007) V(sum_h_out_002_008) V(hidden_activ_out_h002_008) V(sum_h_out_002_009) V(hidden_activ_out_h002_009) V(sum_h_out_002_010) V(hidden_activ_out_h002_010)
+ V(tia_h_out_002_001+) V(tia_h_out_002_001-) V(tia_h_out_002_002+) V(tia_h_out_002_002-) V(tia_h_out_002_003+) V(tia_h_out_002_003-) V(tia_h_out_002_004+) V(tia_h_out_002_004-) V(tia_h_out_002_005+) V(tia_h_out_002_005-) V(tia_h_out_002_006+) V(tia_h_out_002_006-) V(tia_h_out_002_007+) V(tia_h_out_002_007-) V(tia_h_out_002_008+) V(tia_h_out_002_008-) V(tia_h_out_002_009+) V(tia_h_out_002_009-) V(tia_h_out_002_010+) V(tia_h_out_002_010-)
+ V(b_002)
+ V(sum_h_out_003_001) V(hidden_activ_out_h003_001)
+ V(tia_h_out_003_001+) V(tia_h_out_003_001-)
+ V(b_003)

* =============================== Models ==================================

* Call the defined components model from the specified path
*.INCLUDE "./components/MAX4223.sub"
.INCLUDE "./components/TLV3501.sub"
*.INCLUDE "./components/OPA684.sub"

* Import custom sub-circuits
.INCLUDE "./components/activations.sub"
.INCLUDE "./components/lumped_line.sub"
.INCLUDE "./components/Sigmoid3_HA.spice"

* Define diode model
.MODEL D_BAV74_1 D( IS=2.073F N=1 BV=50 IBV=100N RS=1.336 
+      CJO=2P VJ=750M M=330M FC=500M TT=5.771N 
+      EG=1.11 XTI=3 KF=0 AF=1 )

* ============================== Voltages =================================

* ----- Input pulses
* Vi_num: The input voltage as pulse sequences
Vi_001    i_001    0    PWL 0.00ns 0.950V 1.00ns 0.950V 2.00ns 1.083V 300.00ns 1.083V 301.00ns 0.950V
Vi_002    i_002    0    PWL 0.00ns 0.950V 1.00ns 0.950V 2.00ns 1.035V 300.00ns 1.035V 301.00ns 0.950V
Vi_003    i_003    0    PWL 0.00ns 0.950V 1.00ns 0.950V 2.00ns 1.000V 300.00ns 1.000V 301.00ns 0.950V
Vi_004    i_004    0    PWL 0.00ns 0.950V 1.00ns 0.950V 2.00ns 0.972V 300.00ns 0.972V 301.00ns 0.950V
Vi_005    i_005    0    PWL 0.00ns 0.950V 1.00ns 0.950V 2.00ns 1.009V 300.00ns 1.009V 301.00ns 0.950V
Vi_006    i_006    0    PWL 0.00ns 0.950V 1.00ns 0.950V 2.00ns 0.995V 300.00ns 0.995V 301.00ns 0.950V
Vi_007    i_007    0    PWL 0.00ns 0.950V 1.00ns 0.950V 2.00ns 1.042V 300.00ns 1.042V 301.00ns 0.950V
Vi_008    i_008    0    PWL 0.00ns 0.950V 1.00ns 0.950V 2.00ns 0.950V 300.00ns 0.950V 301.00ns 0.950V
Vi_009    i_009    0    PWL 0.00ns 0.950V 1.00ns 0.950V 2.00ns 1.080V 300.00ns 1.080V 301.00ns 0.950V
Vi_010    i_010    0    PWL 0.00ns 0.950V 1.00ns 0.950V 2.00ns 1.039V 300.00ns 1.039V 301.00ns 0.950V
Vi_011    i_011    0    PWL 0.00ns 0.950V 1.00ns 0.950V 2.00ns 0.995V 300.00ns 0.995V 301.00ns 0.950V
Vi_012    i_012    0    PWL 0.00ns 0.950V 1.00ns 0.950V 2.00ns 1.005V 300.00ns 1.005V 301.00ns 0.950V
Vi_013    i_013    0    PWL 0.00ns 0.950V 1.00ns 0.950V 2.00ns 1.010V 300.00ns 1.010V 301.00ns 0.950V
Vi_014    i_014    0    PWL 0.00ns 0.950V 1.00ns 0.950V 2.00ns 1.038V 300.00ns 1.038V 301.00ns 0.950V
Vi_015    i_015    0    PWL 0.00ns 0.950V 1.00ns 0.950V 2.00ns 1.053V 300.00ns 1.053V 301.00ns 0.950V
Vi_016    i_016    0    PWL 0.00ns 0.950V 1.00ns 0.950V 2.00ns 0.960V 300.00ns 0.960V 301.00ns 0.950V
Vi_017    i_017    0    PWL 0.00ns 0.950V 1.00ns 0.950V 2.00ns 1.073V 300.00ns 1.073V 301.00ns 0.950V
Vi_018    i_018    0    PWL 0.00ns 0.950V 1.00ns 0.950V 2.00ns 1.050V 300.00ns 1.050V 301.00ns 0.950V
Vi_019    i_019    0    PWL 0.00ns 0.950V 1.00ns 0.950V 2.00ns 0.992V 300.00ns 0.992V 301.00ns 0.950V
Vi_020    i_020    0    PWL 0.00ns 0.950V 1.00ns 0.950V 2.00ns 1.025V 300.00ns 1.025V 301.00ns 0.950V
Vi_021    i_021    0    PWL 0.00ns 0.950V 1.00ns 0.950V 2.00ns 1.072V 300.00ns 1.072V 301.00ns 0.950V
Vi_022    i_022    0    PWL 0.00ns 0.950V 1.00ns 0.950V 2.00ns 1.035V 300.00ns 1.035V 301.00ns 0.950V
Vi_023    i_023    0    PWL 0.00ns 0.950V 1.00ns 0.950V 2.00ns 1.081V 300.00ns 1.081V 301.00ns 0.950V
Vi_024    i_024    0    PWL 0.00ns 0.950V 1.00ns 0.950V 2.00ns 0.996V 300.00ns 0.996V 301.00ns 0.950V
Vi_025    i_025    0    PWL 0.00ns 0.950V 1.00ns 0.950V 2.00ns 1.104V 300.00ns 1.104V 301.00ns 0.950V
Vi_026    i_026    0    PWL 0.00ns 0.950V 1.00ns 0.950V 2.00ns 1.054V 300.00ns 1.054V 301.00ns 0.950V
Vi_027    i_027    0    PWL 0.00ns 0.950V 1.00ns 0.950V 2.00ns 1.019V 300.00ns 1.019V 301.00ns 0.950V
Vi_028    i_028    0    PWL 0.00ns 0.950V 1.00ns 0.950V 2.00ns 1.028V 300.00ns 1.028V 301.00ns 0.950V
Vi_029    i_029    0    PWL 0.00ns 0.950V 1.00ns 0.950V 2.00ns 1.034V 300.00ns 1.034V 301.00ns 0.950V
Vi_030    i_030    0    PWL 0.00ns 0.950V 1.00ns 0.950V 2.00ns 1.049V 300.00ns 1.049V 301.00ns 0.950V
Vi_031    i_031    0    PWL 0.00ns 0.950V 1.00ns 0.950V 2.00ns 1.072V 300.00ns 1.072V 301.00ns 0.950V
Vi_032    i_032    0    PWL 0.00ns 0.950V 1.00ns 0.950V 2.00ns 0.995V 300.00ns 0.995V 301.00ns 0.950V
Vi_033    i_033    0    PWL 0.00ns 0.950V 1.00ns 0.950V 2.00ns 1.130V 300.00ns 1.130V 301.00ns 0.950V
Vi_034    i_034    0    PWL 0.00ns 0.950V 1.00ns 0.950V 2.00ns 1.073V 300.00ns 1.073V 301.00ns 0.950V
Vi_035    i_035    0    PWL 0.00ns 0.950V 1.00ns 0.950V 2.00ns 1.030V 300.00ns 1.030V 301.00ns 0.950V
Vi_036    i_036    0    PWL 0.00ns 0.950V 1.00ns 0.950V 2.00ns 1.023V 300.00ns 1.023V 301.00ns 0.950V
Vi_037    i_037    0    PWL 0.00ns 0.950V 1.00ns 0.950V 2.00ns 1.087V 300.00ns 1.087V 301.00ns 0.950V
Vi_038    i_038    0    PWL 0.00ns 0.950V 1.00ns 0.950V 2.00ns 1.066V 300.00ns 1.066V 301.00ns 0.950V
Vi_039    i_039    0    PWL 0.00ns 0.950V 1.00ns 0.950V 2.00ns 1.086V 300.00ns 1.086V 301.00ns 0.950V
Vi_040    i_040    0    PWL 0.00ns 0.950V 1.00ns 0.950V 2.00ns 1.019V 300.00ns 1.019V 301.00ns 0.950V
Vi_041    i_041    0    PWL 0.00ns 0.950V 1.00ns 0.950V 2.00ns 1.150V 300.00ns 1.150V 301.00ns 0.950V
Vi_042    i_042    0    PWL 0.00ns 0.950V 1.00ns 0.950V 2.00ns 1.091V 300.00ns 1.091V 301.00ns 0.950V
Vi_043    i_043    0    PWL 0.00ns 0.950V 1.00ns 0.950V 2.00ns 1.036V 300.00ns 1.036V 301.00ns 0.950V
Vi_044    i_044    0    PWL 0.00ns 0.950V 1.00ns 0.950V 2.00ns 1.042V 300.00ns 1.042V 301.00ns 0.950V
Vi_045    i_045    0    PWL 0.00ns 0.950V 1.00ns 0.950V 2.00ns 1.094V 300.00ns 1.094V 301.00ns 0.950V
Vi_046    i_046    0    PWL 0.00ns 0.950V 1.00ns 0.950V 2.00ns 1.075V 300.00ns 1.075V 301.00ns 0.950V
Vi_047    i_047    0    PWL 0.00ns 0.950V 1.00ns 0.950V 2.00ns 1.103V 300.00ns 1.103V 301.00ns 0.950V
Vi_048    i_048    0    PWL 0.00ns 0.950V 1.00ns 0.950V 2.00ns 1.023V 300.00ns 1.023V 301.00ns 0.950V
Vi_049    i_049    0    PWL 0.00ns 0.950V 1.00ns 0.950V 2.00ns 1.136V 300.00ns 1.136V 301.00ns 0.950V
Vi_050    i_050    0    PWL 0.00ns 0.950V 1.00ns 0.950V 2.00ns 1.109V 300.00ns 1.109V 301.00ns 0.950V
Vi_051    i_051    0    PWL 0.00ns 0.950V 1.00ns 0.950V 2.00ns 1.062V 300.00ns 1.062V 301.00ns 0.950V
Vi_052    i_052    0    PWL 0.00ns 0.950V 1.00ns 0.950V 2.00ns 1.044V 300.00ns 1.044V 301.00ns 0.950V
Vi_053    i_053    0    PWL 0.00ns 0.950V 1.00ns 0.950V 2.00ns 1.100V 300.00ns 1.100V 301.00ns 0.950V
Vi_054    i_054    0    PWL 0.00ns 0.950V 1.00ns 0.950V 2.00ns 1.085V 300.00ns 1.085V 301.00ns 0.950V
Vi_055    i_055    0    PWL 0.00ns 0.950V 1.00ns 0.950V 2.00ns 1.091V 300.00ns 1.091V 301.00ns 0.950V
Vi_056    i_056    0    PWL 0.00ns 0.950V 1.00ns 0.950V 2.00ns 1.020V 300.00ns 1.020V 301.00ns 0.950V
Vi_057    i_057    0    PWL 0.00ns 0.950V 1.00ns 0.950V 2.00ns 1.133V 300.00ns 1.133V 301.00ns 0.950V
Vi_058    i_058    0    PWL 0.00ns 0.950V 1.00ns 0.950V 2.00ns 1.107V 300.00ns 1.107V 301.00ns 0.950V
Vi_059    i_059    0    PWL 0.00ns 0.950V 1.00ns 0.950V 2.00ns 1.074V 300.00ns 1.074V 301.00ns 0.950V
Vi_060    i_060    0    PWL 0.00ns 0.950V 1.00ns 0.950V 2.00ns 1.045V 300.00ns 1.045V 301.00ns 0.950V
Vi_061    i_061    0    PWL 0.00ns 0.950V 1.00ns 0.950V 2.00ns 1.115V 300.00ns 1.115V 301.00ns 0.950V
Vi_062    i_062    0    PWL 0.00ns 0.950V 1.00ns 0.950V 2.00ns 1.057V 300.00ns 1.057V 301.00ns 0.950V
Vi_063    i_063    0    PWL 0.00ns 0.950V 1.00ns 0.950V 2.00ns 1.135V 300.00ns 1.135V 301.00ns 0.950V
Vi_064    i_064    0    PWL 0.00ns 0.950V 1.00ns 0.950V 2.00ns 1.033V 300.00ns 1.033V 301.00ns 0.950V

* Vb_num: The bias voltage as pulse sequences

Vb_001    b_001    0    PWL 0.00ns 0.950V 1.00ns 0.950V 2.00ns 1.150V 300.00ns 1.150V 301.00ns 0.950V
Vb_002    b_002    0    PWL 0.00ns 0.950V 11.00ns 0.950V 12.00ns 1.150V 310.00ns 1.150V 311.00ns 0.950V
Vb_003    b_003    0    PWL 0.00ns 0.950V 21.00ns 0.950V 22.00ns 1.150V 320.00ns 1.150V 321.00ns 0.950V

Ve        Ve       0    3
Vcc-      Vcc-     0    -5
Vcc+      Vcc+     0    5

* ============================ NN Parameters ==============================
* Parameters (weights and bias) naming convention: "Rl_i_j+" where:
*   R: Always "R" to inform Xyce it is a resistance
*   l: layer name, "h" for the hidden and output layers and "b" for the biases.
*   i: index of the weight of a neuron (start from 1)
*   j: index of the neuron (start from 1)
*   +: parameter polarity, + or -

* ----------------------------- Layers -----------------------------


* ----- Weights
* Layer 001

* Neuron 1
Rh001_001_001+    i_001    tia_h_in_001_001+    15128.645440125883
Rh001_001_001-    i_001    tia_h_in_001_001-    11474.80562712368
Rh001_002_001+    i_002    tia_h_in_001_001+    15087.564080154194
Rh001_002_001-    i_002    tia_h_in_001_001-    11026.319916672737
Rh001_003_001+    i_003    tia_h_in_001_001+    14847.548166584069
Rh001_003_001-    i_003    tia_h_in_001_001-    14870.883491042723
Rh001_004_001+    i_004    tia_h_in_001_001+    11565.267725398844
Rh001_004_001-    i_004    tia_h_in_001_001-    15108.430622479931
Rh001_005_001+    i_005    tia_h_in_001_001+    11021.394107780849
Rh001_005_001-    i_005    tia_h_in_001_001-    15022.787015131626
Rh001_006_001+    i_006    tia_h_in_001_001+    11711.942577320095
Rh001_006_001-    i_006    tia_h_in_001_001-    14991.586341827804
Rh001_007_001+    i_007    tia_h_in_001_001+    15150.05848069798
Rh001_007_001-    i_007    tia_h_in_001_001-    14276.855380459541
Rh001_008_001+    i_008    tia_h_in_001_001+    15116.854420638254
Rh001_008_001-    i_008    tia_h_in_001_001-    13612.848211238468
Rh001_009_001+    i_009    tia_h_in_001_001+    14989.464455914253
Rh001_009_001-    i_009    tia_h_in_001_001-    14250.32100331042
Rh001_010_001+    i_010    tia_h_in_001_001+    14101.172277728057
Rh001_010_001-    i_010    tia_h_in_001_001-    14975.12428797091
Rh001_011_001+    i_011    tia_h_in_001_001+    11965.079991118457
Rh001_011_001-    i_011    tia_h_in_001_001-    15069.739034413593
Rh001_012_001+    i_012    tia_h_in_001_001+    12806.157935707408
Rh001_012_001-    i_012    tia_h_in_001_001-    14797.290350669084
Rh001_013_001+    i_013    tia_h_in_001_001+    13485.666507664318
Rh001_013_001-    i_013    tia_h_in_001_001-    14876.993082012015
Rh001_014_001+    i_014    tia_h_in_001_001+    14949.688446712637
Rh001_014_001-    i_014    tia_h_in_001_001-    13618.269430368162
Rh001_015_001+    i_015    tia_h_in_001_001+    15013.486830013226
Rh001_015_001-    i_015    tia_h_in_001_001-    12110.276703066007
Rh001_016_001+    i_016    tia_h_in_001_001+    14911.73550663397
Rh001_016_001-    i_016    tia_h_in_001_001-    14262.36971425265
Rh001_017_001+    i_017    tia_h_in_001_001+    15151.34126685275
Rh001_017_001-    i_017    tia_h_in_001_001-    13681.128799180902
Rh001_018_001+    i_018    tia_h_in_001_001+    13006.029923655815
Rh001_018_001-    i_018    tia_h_in_001_001-    14877.62711116211
Rh001_019_001+    i_019    tia_h_in_001_001+    5000
Rh001_019_001-    i_019    tia_h_in_001_001-    5000
Rh001_020_001+    i_020    tia_h_in_001_001+    11650.936987687683
Rh001_020_001-    i_020    tia_h_in_001_001-    15219.636750997528
Rh001_021_001+    i_021    tia_h_in_001_001+    14375.617645413031
Rh001_021_001-    i_021    tia_h_in_001_001-    14759.77444020825
Rh001_022_001+    i_022    tia_h_in_001_001+    15074.72843672886
Rh001_022_001-    i_022    tia_h_in_001_001-    13752.761571248235
Rh001_023_001+    i_023    tia_h_in_001_001+    15040.2040179465
Rh001_023_001-    i_023    tia_h_in_001_001-    13833.312461969801
Rh001_024_001+    i_024    tia_h_in_001_001+    5000
Rh001_024_001-    i_024    tia_h_in_001_001-    12487.221183087697
Rh001_025_001+    i_025    tia_h_in_001_001+    12528.030587036585
Rh001_025_001-    i_025    tia_h_in_001_001-    15077.559334405898
Rh001_026_001+    i_026    tia_h_in_001_001+    13659.466093848629
Rh001_026_001-    i_026    tia_h_in_001_001-    15002.048156141673
Rh001_027_001+    i_027    tia_h_in_001_001+    11993.183931238904
Rh001_027_001-    i_027    tia_h_in_001_001-    5000
Rh001_028_001+    i_028    tia_h_in_001_001+    14630.71115150191
Rh001_028_001-    i_028    tia_h_in_001_001-    15147.81508315075
Rh001_029_001+    i_029    tia_h_in_001_001+    15145.90386474744
Rh001_029_001-    i_029    tia_h_in_001_001-    12849.891992043948
Rh001_030_001+    i_030    tia_h_in_001_001+    15094.430676044014
Rh001_030_001-    i_030    tia_h_in_001_001-    13275.766524532739
Rh001_031_001+    i_031    tia_h_in_001_001+    14873.931726607745
Rh001_031_001-    i_031    tia_h_in_001_001-    5000
Rh001_032_001+    i_032    tia_h_in_001_001+    14030.842697361802
Rh001_032_001-    i_032    tia_h_in_001_001-    15220.16565748861
Rh001_033_001+    i_033    tia_h_in_001_001+    5000
Rh001_033_001-    i_033    tia_h_in_001_001-    14900.15162491189
Rh001_034_001+    i_034    tia_h_in_001_001+    5000
Rh001_034_001-    i_034    tia_h_in_001_001-    14736.823832551387
Rh001_035_001+    i_035    tia_h_in_001_001+    14947.471000985364
Rh001_035_001-    i_035    tia_h_in_001_001-    14906.046983335713
Rh001_036_001+    i_036    tia_h_in_001_001+    14966.815413486076
Rh001_036_001-    i_036    tia_h_in_001_001-    14488.727163104022
Rh001_037_001+    i_037    tia_h_in_001_001+    14884.980723576462
Rh001_037_001-    i_037    tia_h_in_001_001-    14493.73909477778
Rh001_038_001+    i_038    tia_h_in_001_001+    15214.11540653877
Rh001_038_001-    i_038    tia_h_in_001_001-    5000
Rh001_039_001+    i_039    tia_h_in_001_001+    15090.60904728418
Rh001_039_001-    i_039    tia_h_in_001_001-    14050.615034001908
Rh001_040_001+    i_040    tia_h_in_001_001+    13665.01478020349
Rh001_040_001-    i_040    tia_h_in_001_001-    14735.446279437061
Rh001_041_001+    i_041    tia_h_in_001_001+    13376.103860585206
Rh001_041_001-    i_041    tia_h_in_001_001-    15050.570225968273
Rh001_042_001+    i_042    tia_h_in_001_001+    15102.394419059468
Rh001_042_001-    i_042    tia_h_in_001_001-    13941.573472860382
Rh001_043_001+    i_043    tia_h_in_001_001+    15135.614889441
Rh001_043_001-    i_043    tia_h_in_001_001-    15167.75069257208
Rh001_044_001+    i_044    tia_h_in_001_001+    15092.86975970757
Rh001_044_001-    i_044    tia_h_in_001_001-    15000
Rh001_045_001+    i_045    tia_h_in_001_001+    14964.447073298023
Rh001_045_001-    i_045    tia_h_in_001_001-    13745.319250098542
Rh001_046_001+    i_046    tia_h_in_001_001+    14925.203582027936
Rh001_046_001-    i_046    tia_h_in_001_001-    13621.258370255902
Rh001_047_001+    i_047    tia_h_in_001_001+    13808.977512270269
Rh001_047_001-    i_047    tia_h_in_001_001-    14923.455763230733
Rh001_048_001+    i_048    tia_h_in_001_001+    15000
Rh001_048_001-    i_048    tia_h_in_001_001-    15206.61630813718
Rh001_049_001+    i_049    tia_h_in_001_001+    13195.964356039802
Rh001_049_001-    i_049    tia_h_in_001_001-    15116.417439679839
Rh001_050_001+    i_050    tia_h_in_001_001+    13261.992238140856
Rh001_050_001-    i_050    tia_h_in_001_001-    15088.693154064662
Rh001_051_001+    i_051    tia_h_in_001_001+    15082.47152212622
Rh001_051_001-    i_051    tia_h_in_001_001-    14480.517528450198
Rh001_052_001+    i_052    tia_h_in_001_001+    15072.217048442244
Rh001_052_001-    i_052    tia_h_in_001_001-    13895.90763425265
Rh001_053_001+    i_053    tia_h_in_001_001+    14998.350244808273
Rh001_053_001-    i_053    tia_h_in_001_001-    13043.618512432366
Rh001_054_001+    i_054    tia_h_in_001_001+    15143.41283007239
Rh001_054_001-    i_054    tia_h_in_001_001-    5000
Rh001_055_001+    i_055    tia_h_in_001_001+    14215.580765570108
Rh001_055_001-    i_055    tia_h_in_001_001-    14995.397031051358
Rh001_056_001+    i_056    tia_h_in_001_001+    14903.719507046917
Rh001_056_001-    i_056    tia_h_in_001_001-    13653.47609174428
Rh001_057_001+    i_057    tia_h_in_001_001+    5000
Rh001_057_001-    i_057    tia_h_in_001_001-    15109.244136594276
Rh001_058_001+    i_058    tia_h_in_001_001+    15072.888588347781
Rh001_058_001-    i_058    tia_h_in_001_001-    14237.09442482208
Rh001_059_001+    i_059    tia_h_in_001_001+    15148.264708190763
Rh001_059_001-    i_059    tia_h_in_001_001-    10746.063733299425
Rh001_060_001+    i_060    tia_h_in_001_001+    15000
Rh001_060_001-    i_060    tia_h_in_001_001-    10881.016471736744
Rh001_061_001+    i_061    tia_h_in_001_001+    15066.093848303766
Rh001_061_001-    i_061    tia_h_in_001_001-    14772.525186942614
Rh001_062_001+    i_062    tia_h_in_001_001+    12862.380909640671
Rh001_062_001-    i_062    tia_h_in_001_001-    15282.22216474602
Rh001_063_001+    i_063    tia_h_in_001_001+    11679.44856263123
Rh001_063_001-    i_063    tia_h_in_001_001-    15058.73945461571
Rh001_064_001+    i_064    tia_h_in_001_001+    12289.079392465977
Rh001_064_001-    i_064    tia_h_in_001_001-    14987.198785999297

* Neuron 2
Rh001_001_002+    i_001    tia_h_in_001_002+    15014.858192219417
Rh001_001_002-    i_001    tia_h_in_001_002-    12126.496304319602
Rh001_002_002+    i_002    tia_h_in_001_002+    14991.318063416127
Rh001_002_002-    i_002    tia_h_in_001_002-    11637.842455905067
Rh001_003_002+    i_003    tia_h_in_001_002+    14987.747211368232
Rh001_003_002-    i_003    tia_h_in_001_002-    13666.477054581774
Rh001_004_002+    i_004    tia_h_in_001_002+    15162.76266218755
Rh001_004_002-    i_004    tia_h_in_001_002-    5000
Rh001_005_002+    i_005    tia_h_in_001_002+    14699.51086309548
Rh001_005_002-    i_005    tia_h_in_001_002-    13882.080271948676
Rh001_006_002+    i_006    tia_h_in_001_002+    14863.53849280884
Rh001_006_002-    i_006    tia_h_in_001_002-    12176.636677049293
Rh001_007_002+    i_007    tia_h_in_001_002+    15022.772945827308
Rh001_007_002-    i_007    tia_h_in_001_002-    11911.92633101433
Rh001_008_002+    i_008    tia_h_in_001_002+    15018.376557614129
Rh001_008_002-    i_008    tia_h_in_001_002-    12313.320438918636
Rh001_009_002+    i_009    tia_h_in_001_002+    15167.934208435043
Rh001_009_002-    i_009    tia_h_in_001_002-    11566.516393733944
Rh001_010_002+    i_010    tia_h_in_001_002+    13082.446815243347
Rh001_010_002-    i_010    tia_h_in_001_002-    15000
Rh001_011_002+    i_011    tia_h_in_001_002+    14978.330214835734
Rh001_011_002-    i_011    tia_h_in_001_002-    14355.696420576714
Rh001_012_002+    i_012    tia_h_in_001_002+    12849.671959331685
Rh001_012_002-    i_012    tia_h_in_001_002-    15208.860834281606
Rh001_013_002+    i_013    tia_h_in_001_002+    14996.02224595237
Rh001_013_002-    i_013    tia_h_in_001_002-    15058.441194482279
Rh001_014_002+    i_014    tia_h_in_001_002+    14905.389168083058
Rh001_014_002-    i_014    tia_h_in_001_002-    14796.512424366641
Rh001_015_002+    i_015    tia_h_in_001_002+    13635.629019265978
Rh001_015_002-    i_015    tia_h_in_001_002-    14876.229420071202
Rh001_016_002+    i_016    tia_h_in_001_002+    13821.258579435
Rh001_016_002-    i_016    tia_h_in_001_002-    15073.769492264326
Rh001_017_002+    i_017    tia_h_in_001_002+    12066.785123181895
Rh001_017_002-    i_017    tia_h_in_001_002-    15128.023865515574
Rh001_018_002+    i_018    tia_h_in_001_002+    14854.499887605054
Rh001_018_002-    i_018    tia_h_in_001_002-    5000
Rh001_019_002+    i_019    tia_h_in_001_002+    14901.048769737845
Rh001_019_002-    i_019    tia_h_in_001_002-    14987.227127706949
Rh001_020_002+    i_020    tia_h_in_001_002+    14948.10978570103
Rh001_020_002-    i_020    tia_h_in_001_002-    13919.268599267372
Rh001_021_002+    i_021    tia_h_in_001_002+    14506.784660528214
Rh001_021_002-    i_021    tia_h_in_001_002-    5000
Rh001_022_002+    i_022    tia_h_in_001_002+    12613.27985430457
Rh001_022_002-    i_022    tia_h_in_001_002-    14988.054536663536
Rh001_023_002+    i_023    tia_h_in_001_002+    11554.39524681432
Rh001_023_002-    i_023    tia_h_in_001_002-    14984.585239206472
Rh001_024_002+    i_024    tia_h_in_001_002+    11412.733545391617
Rh001_024_002-    i_024    tia_h_in_001_002-    15053.927930782094
Rh001_025_002+    i_025    tia_h_in_001_002+    13526.939491278996
Rh001_025_002-    i_025    tia_h_in_001_002-    5000
Rh001_026_002+    i_026    tia_h_in_001_002+    13442.669578375362
Rh001_026_002-    i_026    tia_h_in_001_002-    15188.31823845389
Rh001_027_002+    i_027    tia_h_in_001_002+    15095.289630394307
Rh001_027_002-    i_027    tia_h_in_001_002-    13775.12823909812
Rh001_028_002+    i_028    tia_h_in_001_002+    15120.017062423967
Rh001_028_002-    i_028    tia_h_in_001_002-    13390.361561875783
Rh001_029_002+    i_029    tia_h_in_001_002+    12668.614670918416
Rh001_029_002-    i_029    tia_h_in_001_002-    15116.339511185673
Rh001_030_002+    i_030    tia_h_in_001_002+    14340.76338793553
Rh001_030_002-    i_030    tia_h_in_001_002-    15239.989823537922
Rh001_031_002+    i_031    tia_h_in_001_002+    14502.349637492818
Rh001_031_002-    i_031    tia_h_in_001_002-    15171.567216095571
Rh001_032_002+    i_032    tia_h_in_001_002+    14920.43511304739
Rh001_032_002-    i_032    tia_h_in_001_002-    14872.324959608455
Rh001_033_002+    i_033    tia_h_in_001_002+    5000
Rh001_033_002-    i_033    tia_h_in_001_002-    14917.195326818915
Rh001_034_002+    i_034    tia_h_in_001_002+    13557.363196457249
Rh001_034_002-    i_034    tia_h_in_001_002-    5000
Rh001_035_002+    i_035    tia_h_in_001_002+    14682.918559356682
Rh001_035_002-    i_035    tia_h_in_001_002-    15035.509524014768
Rh001_036_002+    i_036    tia_h_in_001_002+    14972.408000606494
Rh001_036_002-    i_036    tia_h_in_001_002-    14295.712556326109
Rh001_037_002+    i_037    tia_h_in_001_002+    14586.115708109603
Rh001_037_002-    i_037    tia_h_in_001_002-    14938.492314747002
Rh001_038_002+    i_038    tia_h_in_001_002+    15020.476314478
Rh001_038_002-    i_038    tia_h_in_001_002-    14213.885040225727
Rh001_039_002+    i_039    tia_h_in_001_002+    15000
Rh001_039_002-    i_039    tia_h_in_001_002-    12520.315916128033
Rh001_040_002+    i_040    tia_h_in_001_002+    14920.108117004804
Rh001_040_002-    i_040    tia_h_in_001_002-    13548.188535574118
Rh001_041_002+    i_041    tia_h_in_001_002+    14804.362718359087
Rh001_041_002-    i_041    tia_h_in_001_002-    14944.118401083291
Rh001_042_002+    i_042    tia_h_in_001_002+    13831.653740869191
Rh001_042_002-    i_042    tia_h_in_001_002-    14930.95045613838
Rh001_043_002+    i_043    tia_h_in_001_002+    12187.741446146565
Rh001_043_002-    i_043    tia_h_in_001_002-    14836.667046562847
Rh001_044_002+    i_044    tia_h_in_001_002+    13602.082433355688
Rh001_044_002-    i_044    tia_h_in_001_002-    14994.550440262303
Rh001_045_002+    i_045    tia_h_in_001_002+    15354.523782738668
Rh001_045_002-    i_045    tia_h_in_001_002-    12773.016986278612
Rh001_046_002+    i_046    tia_h_in_001_002+    15087.690831523341
Rh001_046_002-    i_046    tia_h_in_001_002-    12626.885505128741
Rh001_047_002+    i_047    tia_h_in_001_002+    15094.401725930327
Rh001_047_002-    i_047    tia_h_in_001_002-    14420.534653498571
Rh001_048_002+    i_048    tia_h_in_001_002+    15084.169336209367
Rh001_048_002-    i_048    tia_h_in_001_002-    14370.571729512176
Rh001_049_002+    i_049    tia_h_in_001_002+    14833.706873248217
Rh001_049_002-    i_049    tia_h_in_001_002-    13359.690823896284
Rh001_050_002+    i_050    tia_h_in_001_002+    14740.784257417803
Rh001_050_002-    i_050    tia_h_in_001_002-    14715.34949338883
Rh001_051_002+    i_051    tia_h_in_001_002+    14847.05496460694
Rh001_051_002-    i_051    tia_h_in_001_002-    14591.900316128804
Rh001_052_002+    i_052    tia_h_in_001_002+    15008.018140592527
Rh001_052_002-    i_052    tia_h_in_001_002-    14548.440247521181
Rh001_053_002+    i_053    tia_h_in_001_002+    15190.407256812534
Rh001_053_002-    i_053    tia_h_in_001_002-    14284.901389356251
Rh001_054_002+    i_054    tia_h_in_001_002+    13510.9458473471
Rh001_054_002-    i_054    tia_h_in_001_002-    14908.84979399672
Rh001_055_002+    i_055    tia_h_in_001_002+    15000
Rh001_055_002-    i_055    tia_h_in_001_002-    13852.09260841928
Rh001_056_002+    i_056    tia_h_in_001_002+    15072.169328023983
Rh001_056_002-    i_056    tia_h_in_001_002-    15000
Rh001_057_002+    i_057    tia_h_in_001_002+    15256.575947650308
Rh001_057_002-    i_057    tia_h_in_001_002-    5000
Rh001_058_002+    i_058    tia_h_in_001_002+    15137.369367025945
Rh001_058_002-    i_058    tia_h_in_001_002-    14706.041578519995
Rh001_059_002+    i_059    tia_h_in_001_002+    15032.21913200211
Rh001_059_002-    i_059    tia_h_in_001_002-    13657.584688679288
Rh001_060_002+    i_060    tia_h_in_001_002+    15121.126069516595
Rh001_060_002-    i_060    tia_h_in_001_002-    14817.644424702661
Rh001_061_002+    i_061    tia_h_in_001_002+    15000
Rh001_061_002-    i_061    tia_h_in_001_002-    14979.674745518361
Rh001_062_002+    i_062    tia_h_in_001_002+    14201.303050220697
Rh001_062_002-    i_062    tia_h_in_001_002-    14927.950779007011
Rh001_063_002+    i_063    tia_h_in_001_002+    5000
Rh001_063_002-    i_063    tia_h_in_001_002-    14930.815935304096
Rh001_064_002+    i_064    tia_h_in_001_002+    14884.198715087072
Rh001_064_002-    i_064    tia_h_in_001_002-    13574.274494077936

* Neuron 3
Rh001_001_003+    i_001    tia_h_in_001_003+    15160.223754163213
Rh001_001_003-    i_001    tia_h_in_001_003-    13453.20300137503
Rh001_002_003+    i_002    tia_h_in_001_003+    15105.632922417093
Rh001_002_003-    i_002    tia_h_in_001_003-    13744.157244365853
Rh001_003_003+    i_003    tia_h_in_001_003+    11700.34439472623
Rh001_003_003-    i_003    tia_h_in_001_003-    14987.239306414864
Rh001_004_003+    i_004    tia_h_in_001_003+    10134.40251030774
Rh001_004_003-    i_004    tia_h_in_001_003-    15100.633534511953
Rh001_005_003+    i_005    tia_h_in_001_003+    12336.787312170753