Version 4
SHEET 1 2280 680
WIRE 112 96 -16 96
WIRE 272 96 240 96
WIRE 320 96 272 96
WIRE -16 176 -16 96
WIRE 48 176 -16 176
WIRE 64 176 48 176
WIRE 112 176 64 176
WIRE 272 176 240 176
WIRE 320 176 272 176
WIRE 496 176 464 176
WIRE 528 176 496 176
WIRE -16 192 -16 176
WIRE 64 240 64 176
WIRE 192 240 64 240
WIRE -16 304 -16 272
WIRE 192 304 192 240
WIRE 224 304 192 304
WIRE 336 304 288 304
WIRE 464 304 336 304
WIRE 192 416 192 304
WIRE 224 416 192 416
WIRE 336 416 288 416
WIRE 464 416 336 416
FLAG -16 304 0
FLAG 272 176 ot
FLAG 48 176 in
FLAG 496 176 out
FLAG 272 96 old
FLAG 336 304 O_Relu
FLAG 336 416 O_htanh
SYMBOL RNN_Sigmoid3_HA 176 176 R0
SYMATTR InstName X1
SYMBOL voltage -16 176 R0
WINDOW 3 -37 92 Left 0
WINDOW 123 0 0 Left 0
WINDOW 39 0 0 Left 0
SYMATTR Value PWL(0 {lLimit} {simtime} {uLimit})
SYMATTR InstName V1
SYMBOL crossbar 560 176 R0
SYMATTR InstName X2
SYMBOL sourceFollower 384 176 R0
SYMATTR InstName X3
SYMBOL RNN_Sigmoid3_HA 176 96 R0
SYMATTR InstName X4
SYMBOL crossbar 352 96 R0
SYMATTR InstName X5
SYMBOL activ 256 240 R0
SYMATTR InstName U1
SYMATTR Value ""
SYMATTR SpiceModel ReLU
SYMBOL crossbar 496 304 R0
SYMATTR InstName X6
SYMBOL activ 256 352 R0
SYMATTR InstName U2
SYMATTR Value ""
SYMATTR SpiceModel HardTanh
SYMBOL crossbar 496 416 R0
SYMATTR InstName X7
TEXT -16 40 Left 0 !.param simtime=0.2u lLimit=0.4 uLimit=1.8 load=100k
TEXT -16 56 Left 0 !.tran 0 {simtime}
TEXT -24 24 Left 0 !*.include "C:\\Users\\assh2802\\OneDrive - USherbrooke\\circuits\\XYCE\\netlist\\models\\180nm_bulk.txt"
TEXT -16 8 Left 0 !.include "C:\\Users\\assh2802\\OneDrive - USherbrooke\\circuits\\XYCE\\netlist\\models\\180nm_bulk.txt"
TEXT -16 -16 Left 0 !.include "C:\\Users\\assh2802\\OneDrive - USherbrooke\\circuits\\XYCE\\simulations\\ActivationFunction\\Sigmoid4_HA\\LTspice-cli-master\\LTspice-cli-master\\spice\\components\\activations.sub"
