Version 4
SHEET 1 2360 5108
WIRE -1452 -48 -1500 -48
WIRE 316 -8 300 -8
WIRE -300 10 -316 10
WIRE -1500 16 -1500 -48
WIRE 316 28 300 28
WIRE -1452 144 -1500 144
WIRE -1500 208 -1500 144
WIRE -1452 336 -1500 336
WIRE -1500 400 -1500 336
WIRE -224 484 -240 484
WIRE 240 500 224 500
WIRE -224 516 -240 516
WIRE -1452 528 -1500 528
WIRE -1500 592 -1500 528
WIRE -1452 720 -1500 720
WIRE -1500 784 -1500 720
WIRE 1072 816 864 816
WIRE 1280 816 1152 816
WIRE 1968 832 1632 832
WIRE 1968 864 1744 864
WIRE 1072 880 1024 880
WIRE 1968 896 1872 896
WIRE -1452 912 -1500 912
WIRE 1632 912 1632 832
WIRE 1744 912 1744 864
WIRE 1872 912 1872 896
WIRE 1152 928 1104 928
WIRE 1072 960 1072 880
WIRE -1500 976 -1500 912
WIRE 1104 976 1104 928
WIRE 316 982 300 982
WIRE 864 992 864 816
WIRE 864 992 848 992
WIRE 1072 992 864 992
WIRE -300 1000 -316 1000
WIRE 1248 1008 1136 1008
WIRE 1280 1008 1280 816
WIRE 1280 1008 1248 1008
WIRE 1328 1008 1280 1008
WIRE 1472 1008 1408 1008
WIRE 1488 1008 1472 1008
WIRE 1584 1008 1488 1008
WIRE 316 1018 300 1018
WIRE 1072 1024 864 1024
WIRE 864 1056 864 1024
WIRE 1104 1056 1104 1040
WIRE 1168 1056 1104 1056
WIRE 1488 1056 1488 1008
WIRE -1452 1104 -1500 1104
WIRE -1500 1168 -1500 1104
WIRE 1760 1168 1728 1168
WIRE 1072 1216 864 1216
WIRE 1280 1216 1152 1216
WIRE 1728 1216 1728 1168
WIRE 1696 1232 1632 1232
WIRE 1840 1248 1760 1248
WIRE 1952 1248 1840 1248
WIRE 2064 1248 2016 1248
WIRE 1584 1264 1584 1008
WIRE 1696 1264 1584 1264
WIRE 1072 1280 1024 1280
WIRE -1452 1296 -1500 1296
WIRE 1728 1296 1728 1280
WIRE 1760 1296 1728 1296
WIRE 1136 1328 1104 1328
WIRE -1500 1360 -1500 1296
WIRE 1072 1360 1072 1280
WIRE 1104 1376 1104 1328
WIRE 864 1392 864 1216
WIRE 864 1392 848 1392
WIRE 1072 1392 864 1392
WIRE 1248 1408 1136 1408
WIRE 1280 1408 1280 1216
WIRE 1280 1408 1248 1408
WIRE 1328 1408 1280 1408
WIRE 1472 1408 1408 1408
WIRE 1632 1408 1632 1232
WIRE 1632 1408 1472 1408
WIRE 1680 1408 1632 1408
WIRE 1840 1408 1840 1248
WIRE 1840 1408 1760 1408
WIRE 1072 1424 864 1424
WIRE 864 1456 864 1424
WIRE 1104 1456 1104 1440
WIRE 1136 1456 1104 1456
WIRE -1452 1488 -1500 1488
WIRE -1500 1552 -1500 1488
WIRE -1452 1680 -1500 1680
WIRE -1500 1744 -1500 1680
WIRE -1452 1872 -1500 1872
WIRE -1500 1936 -1500 1872
WIRE -1452 2064 -1500 2064
WIRE -1500 2128 -1500 2064
WIRE -1452 2256 -1500 2256
WIRE -1500 2320 -1500 2256
WIRE -1452 2448 -1500 2448
WIRE -1500 2512 -1500 2448
WIRE -1452 2640 -1500 2640
WIRE -1500 2704 -1500 2640
WIRE -1452 2832 -1500 2832
WIRE -1500 2896 -1500 2832
WIRE -1452 3024 -1500 3024
WIRE -1500 3088 -1500 3024
WIRE -1452 3216 -1500 3216
WIRE -1500 3280 -1500 3216
WIRE -1452 3408 -1500 3408
WIRE -1500 3472 -1500 3408
WIRE -1452 3600 -1500 3600
WIRE -1500 3664 -1500 3600
WIRE -1452 3792 -1500 3792
WIRE -1500 3856 -1500 3792
WIRE -1452 3984 -1500 3984
WIRE -1500 4048 -1500 3984
WIRE -1452 4176 -1500 4176
WIRE -1500 4240 -1500 4176
WIRE -1452 4368 -1500 4368
WIRE -1500 4432 -1500 4368
WIRE -1452 4560 -1500 4560
WIRE -1500 4624 -1500 4560
WIRE -1452 4752 -1500 4752
WIRE -1500 4816 -1500 4752
WIRE -1452 4944 -1500 4944
WIRE -1500 5008 -1500 4944
FLAG -316 10 Vin_cb26by10[0:25]
FLAG 316 28 Vout_cb26by10_+[0:4]
FLAG 316 -8 Vout_cb26by10_-[0:4]
FLAG -316 1000 Vin_cb6by2[0:5]
FLAG 316 1018 Vout_cb6by2_+[0:0]
FLAG 316 982 Vout_cb6by2_-[0:0]
FLAG -240 484 Vout_cb26by10_+[0:4]
FLAG -240 516 Vout_cb26by10_-[0:4]
FLAG 240 500 Vin_cb6by2[0:4]
FLAG -1500 96 0
FLAG -1452 -48 Vin_cb26by10[0]
FLAG -1500 288 0
FLAG -1452 144 Vin_cb26by10[1]
FLAG -1500 480 0
FLAG -1452 336 Vin_cb26by10[2]
FLAG -1500 672 0
FLAG -1452 528 Vin_cb26by10[3]
FLAG -1500 864 0
FLAG -1452 720 Vin_cb26by10[4]
FLAG -1500 1056 0
FLAG -1452 912 Vin_cb26by10[5]
FLAG -1500 1248 0
FLAG -1452 1104 Vin_cb26by10[6]
FLAG -1500 1440 0
FLAG -1452 1296 Vin_cb26by10[7]
FLAG -1500 1632 0
FLAG -1452 1488 Vin_cb26by10[8]
FLAG -1500 1824 0
FLAG -1452 1680 Vin_cb26by10[9]
FLAG -1500 2016 0
FLAG -1452 1872 Vin_cb26by10[10]
FLAG -1500 2208 0
FLAG -1452 2064 Vin_cb26by10[11]
FLAG -1500 2400 0
FLAG -1452 2256 Vin_cb26by10[12]
FLAG -1500 2592 0
FLAG -1452 2448 Vin_cb26by10[13]
FLAG -1500 2784 0
FLAG -1452 2640 Vin_cb26by10[14]
FLAG -1500 2976 0
FLAG -1452 2832 Vin_cb26by10[15]
FLAG -1500 3168 0
FLAG -1452 3024 Vin_cb26by10[16]
FLAG -1500 3360 0
FLAG -1452 3216 Vin_cb26by10[17]
FLAG -1500 3552 0
FLAG -1452 3408 Vin_cb26by10[18]
FLAG -1500 3744 0
FLAG -1452 3600 Vin_cb26by10[19]
FLAG -1500 3936 0
FLAG -1452 3792 Vin_cb26by10[20]
FLAG -1500 4128 0
FLAG -1452 3984 Vin_cb26by10[21]
FLAG -1500 4320 0
FLAG -1452 4176 Vin_cb26by10[22]
FLAG -1500 4512 0
FLAG -1452 4368 Vin_cb26by10[23]
FLAG -1500 4704 0
FLAG -1452 4560 Vin_cb26by10[24]
FLAG -1500 4896 0
FLAG -1452 4752 Vin_cb26by10[25]
FLAG -1500 5088 0
FLAG -1452 4944 Vin_cb6by2[5]
FLAG 864 1056 0
FLAG 1488 1136 0
FLAG 1472 1008 sum_h_in_+
FLAG 1248 1008 tia_h_out_-
FLAG 1872 992 0
FLAG 1744 992 0
FLAG 1632 992 0
FLAG 1968 832 Vcc-
FLAG 1968 864 Vcc+
FLAG 1968 896 Ve
FLAG 1152 928 Vcc+
FLAG 1168 1056 Vcc-
FLAG 1024 880 Ve
FLAG 864 1456 0
FLAG 1472 1408 sum_h_in_-
FLAG 1248 1408 tia_h_out_+
FLAG 1136 1328 Vcc+
FLAG 1136 1456 Vcc-
FLAG 1024 1280 Ve
FLAG 1760 1296 Vcc-
FLAG 1760 1168 Vcc+
FLAG 1840 1248 sum_h_out
FLAG 848 1392 Vout_cb6by2_+[0]
IOPIN 848 1392 In
FLAG 848 992 Vout_cb6by2_-[0]
IOPIN 848 992 In
FLAG 2064 1248 sum_activ_out
IOPIN 2064 1248 Out
SYMBOL X_cbar_26by10 0 10 R0
SYMATTR InstName X_cbar_26by10
SYMBOL X_cbar_6by2 0 1000 R0
SYMATTR InstName X_cbar_6by2
SYMBOL X_aux_10by5 0 500 R0
SYMATTR InstName X_aux_10by5
SYMBOL voltage -1500 0 R0
SYMATTR InstName V0
SYMATTR Value PWL 0.00ns 0.000V 1.00ns 0.000V 2.00ns 0.000V 400.00ns 0.000V 401.00ns 0.000V
SYMBOL voltage -1500 192 R0
SYMATTR InstName V1
SYMATTR Value PWL 0.00ns 0.000V 1.00ns 0.000V 2.00ns 0.000V 400.00ns 0.000V 401.00ns 0.000V
SYMBOL voltage -1500 384 R0
SYMATTR InstName V2
SYMATTR Value PWL 0.00ns 0.000V 1.00ns 0.000V 2.00ns 0.000V 400.00ns 0.000V 401.00ns 0.000V
SYMBOL voltage -1500 576 R0
SYMATTR InstName V3
SYMATTR Value PWL 0.00ns 0.000V 1.00ns 0.000V 2.00ns 0.000V 400.00ns 0.000V 401.00ns 0.000V
SYMBOL voltage -1500 768 R0
SYMATTR InstName V4
SYMATTR Value PWL 0.00ns 0.000V 1.00ns 0.000V 2.00ns 0.000V 400.00ns 0.000V 401.00ns 0.000V
SYMBOL voltage -1500 960 R0
SYMATTR InstName V5
SYMATTR Value PWL 0.00ns 0.000V 1.00ns 0.000V 2.00ns 0.000V 400.00ns 0.000V 401.00ns 0.000V
SYMBOL voltage -1500 1152 R0
SYMATTR InstName V6
SYMATTR Value PWL 0.00ns 0.000V 1.00ns 0.000V 2.00ns 0.000V 400.00ns 0.000V 401.00ns 0.000V
SYMBOL voltage -1500 1344 R0
SYMATTR InstName V7
SYMATTR Value PWL 0.00ns 0.000V 1.00ns 0.000V 2.00ns 0.000V 400.00ns 0.000V 401.00ns 0.000V
SYMBOL voltage -1500 1536 R0
SYMATTR InstName V8
SYMATTR Value PWL 0.00ns 0.000V 1.00ns 0.000V 2.00ns 0.000V 400.00ns 0.000V 401.00ns 0.000V
SYMBOL voltage -1500 1728 R0
SYMATTR InstName V9
SYMATTR Value PWL 0.00ns 0.000V 1.00ns 0.000V 2.00ns 0.000V 400.00ns 0.000V 401.00ns 0.000V
SYMBOL voltage -1500 1920 R0
SYMATTR InstName V10
SYMATTR Value PWL 0.00ns 0.000V 1.00ns 0.000V 2.00ns 0.000V 400.00ns 0.000V 401.00ns 0.000V
SYMBOL voltage -1500 2112 R0
SYMATTR InstName V11
SYMATTR Value PWL 0.00ns 0.000V 1.00ns 0.000V 2.00ns 0.000V 400.00ns 0.000V 401.00ns 0.000V
SYMBOL voltage -1500 2304 R0
SYMATTR InstName V12
SYMATTR Value PWL 0.00ns 0.000V 1.00ns 0.000V 2.00ns 0.000V 400.00ns 0.000V 401.00ns 0.000V
SYMBOL voltage -1500 2496 R0
SYMATTR InstName V13
SYMATTR Value PWL 0.00ns 0.000V 1.00ns 0.000V 2.00ns 0.000V 400.00ns 0.000V 401.00ns 0.000V
SYMBOL voltage -1500 2688 R0
SYMATTR InstName V14
SYMATTR Value PWL 0.00ns 0.000V 1.00ns 0.000V 2.00ns 0.000V 400.00ns 0.000V 401.00ns 0.000V
SYMBOL voltage -1500 2880 R0
SYMATTR InstName V15
SYMATTR Value PWL 0.00ns 0.000V 1.00ns 0.000V 2.00ns 0.000V 400.00ns 0.000V 401.00ns 0.000V
SYMBOL voltage -1500 3072 R0
SYMATTR InstName V16
SYMATTR Value PWL 0.00ns 0.000V 1.00ns 0.000V 2.00ns 0.000V 400.00ns 0.000V 401.00ns 0.000V
SYMBOL voltage -1500 3264 R0
SYMATTR InstName V17
SYMATTR Value PWL 0.00ns 0.000V 1.00ns 0.000V 2.00ns 0.000V 400.00ns 0.000V 401.00ns 0.000V
SYMBOL voltage -1500 3456 R0
SYMATTR InstName V18
SYMATTR Value PWL 0.00ns 0.000V 1.00ns 0.000V 2.00ns 0.000V 400.00ns 0.000V 401.00ns 0.000V
SYMBOL voltage -1500 3648 R0
SYMATTR InstName V19
SYMATTR Value PWL 0.00ns 0.000V 1.00ns 0.000V 2.00ns 0.000V 400.00ns 0.000V 401.00ns 0.000V
SYMBOL voltage -1500 3840 R0
SYMATTR InstName V20
SYMATTR Value PWL 0.00ns 0.000V 1.00ns 0.000V 2.00ns 0.000V 400.00ns 0.000V 401.00ns 0.000V
SYMBOL voltage -1500 4032 R0
SYMATTR InstName V21
SYMATTR Value PWL 0.00ns 0.000V 1.00ns 0.000V 2.00ns 0.000V 400.00ns 0.000V 401.00ns 0.000V
SYMBOL voltage -1500 4224 R0
SYMATTR InstName V22
SYMATTR Value PWL 0.00ns 0.000V 1.00ns 0.000V 2.00ns 0.200V 400.00ns 0.200V 401.00ns 0.000V
SYMBOL voltage -1500 4416 R0
SYMATTR InstName V23
SYMATTR Value PWL 0.00ns 0.000V 1.00ns 0.000V 2.00ns 0.000V 400.00ns 0.000V 401.00ns 0.000V
SYMBOL voltage -1500 4608 R0
SYMATTR InstName V24
SYMATTR Value PWL 0.00ns 0.000V 1.00ns 0.000V 2.00ns 0.000V 400.00ns 0.000V 401.00ns 0.000V
SYMBOL voltage -1500 4800 R0
SYMATTR InstName V25
SYMATTR Value PWL 0.00ns 0.000V 1.00ns 0.000V 2.00ns 0.200V 400.00ns 0.200V 401.00ns 0.000V
SYMBOL voltage -1500 4992 R0
SYMATTR InstName V26
SYMATTR Value PWL 0.00ns 0.000V 11.00ns 0.000V 12.00ns 0.200V 410.00ns 0.200V 411.00ns 0.000V
SYMBOL res 1472 1040 R0
SYMATTR InstName R1
SYMATTR Value 650
SYMBOL res 1424 1024 M270
WINDOW 0 32 56 VTop 2
WINDOW 3 0 56 VBottom 2
SYMATTR InstName R2
SYMATTR Value 260
SYMBOL res 1168 832 M270
WINDOW 0 32 56 VTop 2
WINDOW 3 0 56 VBottom 2
SYMATTR InstName R3
SYMATTR Value 4.6636k
SYMBOL MySym\\opamp2_custom 1104 944 R0
WINDOW 3 16 96 Invisible 2
SYMATTR Value ""
SYMATTR InstName U1
SYMATTR SpiceModel OPA684_0
SYMBOL voltage 1872 896 R0
WINDOW 123 0 0 Left 0
WINDOW 39 0 0 Left 0
SYMATTR InstName V27
SYMATTR Value 3
SYMBOL voltage 1744 896 R0
WINDOW 123 0 0 Left 0
WINDOW 39 0 0 Left 0
SYMATTR InstName V28
SYMATTR Value 5
SYMBOL voltage 1632 896 R0
WINDOW 123 0 0 Left 0
WINDOW 39 0 0 Left 0
SYMATTR InstName V29
SYMATTR Value -5
SYMBOL res 1776 1392 R90
WINDOW 0 0 56 VBottom 2
WINDOW 3 32 56 VTop 2
SYMATTR InstName R4
SYMATTR Value 650
SYMBOL res 1424 1424 M270
WINDOW 0 32 56 VTop 2
WINDOW 3 0 56 VBottom 2
SYMATTR InstName R5
SYMATTR Value 260
SYMBOL res 1168 1232 M270
WINDOW 0 32 56 VTop 2
WINDOW 3 0 56 VBottom 2
SYMATTR InstName R6
SYMATTR Value 4.6636k
SYMBOL MySym\\opamp2_custom 1104 1344 R0
WINDOW 3 16 96 Invisible 2
WINDOW 38 -129 116 Left 2
SYMATTR Value ""
SYMATTR SpiceModel OPA684_0
SYMATTR InstName U2
SYMBOL OpAmps\\opamp2 1728 1184 R0
WINDOW 3 16 96 Invisible 2
SYMATTR Value ""
SYMATTR InstName U3
SYMATTR SpiceModel MAX4223
SYMBOL MySym\\activ 1984 1184 R0
WINDOW 3 10 86 Invisible 2
SYMATTR Value ""
SYMATTR InstName U4
SYMATTR SpiceModel ReLU
TEXT -1008 -208 Left 2 !.tran {simtime}
TEXT -1008 -240 Left 2 !.param simtime=1u
TEXT -1008 -272 Left 2 !.include ../components/180nm_bulk.txt
TEXT 808 752 Left 0 !.include "../components/activations.sub"
