Version 4
SHEET 1 880 680
WIRE 48 80 -16 80
WIRE 512 96 448 96
WIRE 48 112 -16 112
WIRE 48 208 -16 208
WIRE 512 224 448 224
WIRE 48 240 -16 240
WIRE 48 336 -16 336
WIRE 512 352 448 352
WIRE 48 368 -16 368
WIRE 48 448 -16 448
WIRE 512 464 448 464
WIRE 48 480 -16 480
WIRE 48 576 -16 576
WIRE 512 592 448 592
WIRE 48 608 -16 608
FLAG -16 80 tia_h_in_+[0]
IOPIN -16 80 In
FLAG -16 112 tia_h_in_-[0]
IOPIN -16 112 In
FLAG -16 208 tia_h_in_+[1]
IOPIN -16 208 In
FLAG -16 240 tia_h_in_-[1]
IOPIN -16 240 In
FLAG -16 336 tia_h_in_+[2]
IOPIN -16 336 In
FLAG -16 368 tia_h_in_-[2]
IOPIN -16 368 In
FLAG -16 448 tia_h_in_+[3]
IOPIN -16 448 In
FLAG -16 480 tia_h_in_-[3]
IOPIN -16 480 In
FLAG -16 576 tia_h_in_+[4]
IOPIN -16 576 In
FLAG -16 608 tia_h_in_-[4]
IOPIN -16 608 In
FLAG 512 96 h_act_out[0]
IOPIN 512 96 Out
FLAG 512 224 h_act_out[1]
IOPIN 512 224 Out
FLAG 512 352 h_act_out[2]
IOPIN 512 352 Out
FLAG 512 464 h_act_out[3]
IOPIN 512 464 Out
FLAG 512 592 h_act_out[4]
IOPIN 512 592 Out
SYMBOL column_activ 240 96 R0
SYMATTR InstName X1
SYMBOL column_activ 240 224 R0
SYMATTR InstName X2
SYMBOL column_activ 240 352 R0
SYMATTR InstName X3
SYMBOL column_activ 240 464 R0
SYMATTR InstName X4
SYMBOL column_activ 240 592 R0
SYMATTR InstName X5
