Version 4
SHEET 1 2892 740
WIRE 1664 -896 1488 -896
WIRE 1984 -896 1664 -896
WIRE 1488 -880 1488 -896
WIRE 1664 -880 1664 -896
WIRE 1984 -832 1712 -832
WIRE 1984 -800 1792 -800
WIRE 1792 -784 1792 -800
WIRE 1792 -784 1712 -784
WIRE 2000 -768 1888 -768
WIRE 2048 -736 1952 -736
WIRE 1488 -592 1488 -800
WIRE 1664 -592 1664 -736
WIRE 1664 -592 1488 -592
WIRE 1888 -592 1888 -688
WIRE 1888 -592 1664 -592
WIRE 1952 -592 1952 -656
WIRE 1952 -592 1888 -592
WIRE 1472 -480 1424 -480
WIRE 1984 -480 1472 -480
WIRE 2032 -480 1984 -480
WIRE 2448 -464 2400 -464
WIRE 2784 -448 2736 -448
WIRE 1424 -304 1424 -480
WIRE 1472 -256 1472 -480
WIRE 1472 -256 1424 -256
WIRE 1376 -224 1296 -224
WIRE 1680 -80 1248 -80
WIRE 1424 -32 1424 -208
WIRE 1424 -32 1312 -32
WIRE 1600 -32 1424 -32
WIRE 1472 16 1312 16
WIRE 1600 16 1472 16
WIRE 1264 48 1152 48
WIRE 1680 48 1680 -80
WIRE 1680 48 1648 48
WIRE 1984 48 1984 -480
WIRE 2400 64 2400 -464
WIRE 2736 80 2736 -448
WIRE 2032 96 2032 -480
WIRE 2032 96 1984 96
WIRE 2448 112 2448 -464
WIRE 2448 112 2400 112
WIRE 1600 128 1600 64
WIRE 1728 128 1600 128
WIRE 1904 128 1728 128
WIRE 1936 128 1904 128
WIRE 2784 128 2784 -448
WIRE 2784 128 2736 128
WIRE 2352 144 2320 144
WIRE 2688 160 2656 160
WIRE 1984 240 1984 144
WIRE 2320 240 2320 144
WIRE 2320 240 1984 240
WIRE 2400 240 2400 160
WIRE 2656 240 2656 160
WIRE 2656 240 2400 240
WIRE 1312 256 1312 64
WIRE 1408 256 1312 256
WIRE 1440 256 1408 256
WIRE 2736 256 2736 176
WIRE 1312 304 1312 256
WIRE 1600 304 1600 128
WIRE 1984 304 1984 240
WIRE 2400 320 2400 240
WIRE 2736 336 2736 256
WIRE 1312 352 1280 352
WIRE 1632 352 1600 352
WIRE 2032 352 1984 352
WIRE 2448 368 2400 368
WIRE 1440 384 1440 256
WIRE 1440 384 1360 384
WIRE 1552 384 1440 384
WIRE 1904 384 1904 128
WIRE 1936 384 1904 384
WIRE 2784 384 2736 384
WIRE 2320 400 2320 240
WIRE 2352 400 2320 400
WIRE 2656 416 2656 240
WIRE 2688 416 2656 416
WIRE 1280 544 1280 352
WIRE 1312 544 1312 400
WIRE 1312 544 1280 544
WIRE 1408 544 1312 544
WIRE 1456 544 1408 544
WIRE 1600 544 1600 400
WIRE 1600 544 1456 544
WIRE 1632 544 1632 352
WIRE 1632 544 1600 544
WIRE 1984 544 1984 400
WIRE 1984 544 1856 544
WIRE 2032 544 2032 352
WIRE 2032 544 1984 544
WIRE 2400 560 2400 416
WIRE 2448 560 2448 368
WIRE 2448 560 2400 560
WIRE 2736 576 2736 432
WIRE 2784 576 2784 384
WIRE 2784 576 2736 576
WIRE 1472 592 1456 592
WIRE 1408 624 1408 544
WIRE 1456 672 1456 640
WIRE 1472 672 1472 592
WIRE 1472 672 1456 672
WIRE 1856 672 1856 544
WIRE 1856 672 1472 672
WIRE 1456 720 1456 672
FLAG 2032 -480 VDD
IOPIN 2032 -480 BiDir
FLAG 2032 544 VSS
IOPIN 2032 544 BiDir
FLAG 1472 16 VDD
FLAG 1296 -224 Vbiasp
FLAG 2048 -736 Dec_outN
FLAG 2000 -768 Dec_outP
FLAG 1984 -800 Vbiasp
FLAG 1984 -832 Vbiasn
FLAG 1984 -896 VDD
FLAG 1664 -592 0
FLAG 1248 -80 Dec_outP
FLAG 1152 48 Dec_outN
FLAG 1408 256 PostAmp_outP
FLAG 1728 128 PostAmp_outN
FLAG 1456 720 0
FLAG 2448 -464 VDD
IOPIN 2448 -464 BiDir
FLAG 2448 560 VSS
IOPIN 2448 560 BiDir
FLAG 2784 -448 VDD
IOPIN 2784 -448 BiDir
FLAG 2784 576 VSS
IOPIN 2784 576 BiDir
FLAG 2736 256 Out
IOPIN 2736 256 Out
SYMBOL pmos4 1264 -32 R0
SYMATTR InstName M20
SYMATTR Value pch_mac
SYMATTR Value2 l=1u w=10u
SYMBOL pmos4 1648 -32 M0
SYMATTR InstName M21
SYMATTR Value pch_mac
SYMATTR Value2 l=1u w=10u
SYMBOL pmos4 1376 -304 R0
SYMATTR InstName M22
SYMATTR Value pch_mac
SYMATTR Value2 l=1u w=20u
SYMBOL nmos4 1552 304 R0
SYMATTR InstName M23
SYMATTR Value nch_mac
SYMATTR Value2 l=0.18u w=6u
SYMBOL nmos4 1360 304 M0
SYMATTR InstName M24
SYMATTR Value nch_mac
SYMATTR Value2 l=0.18u w=6u
SYMBOL pmos4 1936 48 R0
SYMATTR InstName M25
SYMATTR Value pch_mac
SYMATTR Value2 l=0.18u w=1u
SYMBOL nmos4 1936 304 R0
SYMATTR InstName M26
SYMATTR Value nch_mac
SYMATTR Value2 l=0.18u w=0.5u
SYMBOL voltage 1488 -896 R0
WINDOW 3 -9 58 Left 0
WINDOW 123 0 0 Left 0
WINDOW 39 0 0 Left 0
SYMATTR Value 1.8
SYMATTR InstName V1
SYMBOL voltage 1888 -784 R0
WINDOW 3 -35 62 Left 0
WINDOW 123 0 0 Left 0
WINDOW 39 0 0 Left 0
SYMATTR Value PWL(0 0 {simtime/2} {Von} {simtime} 0)
SYMATTR InstName V2
SYMBOL voltage 1952 -752 R0
WINDOW 123 0 0 Left 0
WINDOW 39 0 0 Left 0
WINDOW 3 -15 54 Left 0
SYMATTR Value 0
SYMATTR InstName V3
SYMBOL BiasCircuit 1648 -800 R0
SYMATTR InstName X1
SYMBOL nmos4 1408 544 R0
SYMATTR InstName M1
SYMATTR Value nch_mac
SYMATTR Value2 l={L} w={L}
SYMBOL pmos4 2352 64 R0
SYMATTR InstName M2
SYMATTR Value pch_mac
SYMATTR Value2 l=0.5u w=5u
SYMBOL nmos4 2352 320 R0
SYMATTR InstName M3
SYMATTR Value nch_mac
SYMATTR Value2 l=0.5u w=2.5u
SYMBOL pmos4 2688 80 R0
SYMATTR InstName M4
SYMATTR Value pch_mac
SYMATTR Value2 l=0.5u w=5u
SYMBOL nmos4 2688 336 R0
SYMATTR InstName M5
SYMATTR Value nch_mac
SYMATTR Value2 l=0.5u w=2.5u
TEXT 1656 -1024 Left 2 !*.dc V2 1.1 0
TEXT 1648 -1000 Left 2 !.tran 0 {simtime} 0 10n
TEXT 1648 -976 Left 2 !.param simtime=0.8u L=10u Von=0.2
TEXT 1656 -952 Left 0 !.include "C:\\Users\\Hussein\\UDeM\\OneDrive - USherbrooke\\circuits\\XYCE\\simulations\\ActivationFunction\\Sigmoid4_HA\\LTspice-cli-master\\LTspice-cli-master\\test\\components\\180nm_bulk.txt"
TEXT 2128 -912 Left 2 ;*PULSE(0 0.2 0 5n 5n 400n 800n)
