Version 4
SHEET 1 960 720
TEXT 0 32 Left 2 ; To make the translation from any network size, the circuit is scaled up automatically using Jinja template engine.
TEXT 0 96 Left 2 ;
TEXT 0 160 Left 2 ; Xyce: https://xyce.sandia.gov
TEXT 0 224 Left 2 ; Jinja: https://jinja.palletsprojects.com
TEXT 0 288 Left 2 ; ======================== Simulation parameters ==========================
TEXT 0 352 Left 2 !.param simtime=1u
TEXT 0 416 Left 2 !.TRAN 0.20ns {simtime}
TEXT 0 480 Left 2 ; OPTIONS TIMEINT change the time integration parameters
TEXT 0 544 Left 2 ; ERROPTION  (If 0 Local Truncation Error is used)
TEXT 0 608 Left 2 ; METHOD: Time integration method
TEXT 0 672 Left 2 ; NLMIN, NLMAX:  lower and upper bound for the desired number of nonlinear iterations
TEXT 0 736 Left 2 ; DELMAX: The maximum time step-size used
TEXT 0 800 Left 2 ; This additional line allows to fix convergence problem but increases the simulation time
TEXT 0 864 Left 2 ;.OPTIONS TIMEINT ERROPTION=1 METHOD=GEAR NLMIN=3 NLMAX=8 DELMAX=1.0e-10
TEXT 0 928 Left 2 ;.OPTIONS ERROPTION=1 METHOD=GEAR NLMIN=3 NLMAX=8 DELMAX=1.0e-10
TEXT 0 992 Left 2 ; List variables to save in the result table
TEXT 0 1056 Left 2 !.PRINT TRAN V (sum_h_out_002_001) V(hidden_activ_out_h002_001)
TEXT 0 1120 Left 2 !+ V (i_001) V(i_002) V(i_003) V(i_004) V(i_005) V(i_006) V(i_007) V(i_008) V(i_009) V(i_010) V(i_011) V(i_012) V(i_013) V(i_014) V(i_015) V(i_016) V(i_017) V(i_018) V(i_019) V(i_020) V(i_021) V(i_022) V(i_023) V(i_024) V(i_025)
TEXT 0 1184 Left 2 !+ V (sum_h_out_001_001) V(hidden_activ_out_h001_001) V(sum_h_out_001_002) V(hidden_activ_out_h001_002) V(sum_h_out_001_003) V(hidden_activ_out_h001_003) V(sum_h_out_001_004) V(hidden_activ_out_h001_004) V(sum_h_out_001_005) V(hidden_activ_out_h001_005)
TEXT 0 1248 Left 2 !+ V (tia_h_out_001_001+) V(tia_h_out_001_001-) V(tia_h_out_001_002+) V(tia_h_out_001_002-) V(tia_h_out_001_003+) V(tia_h_out_001_003-) V(tia_h_out_001_004+) V(tia_h_out_001_004-) V(tia_h_out_001_005+) V(tia_h_out_001_005-)
TEXT 0 1312 Left 2 !+ V (b_001)
TEXT 0 1376 Left 2 !+ V (sum_h_out_002_001) V(hidden_activ_out_h002_001)
TEXT 0 1440 Left 2 !+ V (tia_h_out_002_001+) V(tia_h_out_002_001-)
TEXT 0 1504 Left 2 !+ V (b_002)
TEXT 0 1568 Left 2 ; =============================== Models ==================================
TEXT 0 1632 Left 2 ; Call the defined components model from the specified path
TEXT 0 1696 Left 2 ;.INCLUDE "./components/MAX4223.sub"
TEXT 0 1760 Left 2 !.INCLUDE "./components/TLV3501.sub"
TEXT 0 1824 Left 2 ;.INCLUDE "./components/OPA684.sub"
TEXT 0 1888 Left 2 ; Import custom sub-circuits
TEXT 0 1952 Left 2 !.INCLUDE "./components/activations.sub"
TEXT 0 2016 Left 2 !.INCLUDE "./components/lumped_line.sub"
TEXT 0 2080 Left 2 ; Define diode model
TEXT 0 2144 Left 2 !.MODEL D_BAV74_1 D ( IS=2.073F N=1 BV=50 IBV=100N RS=1.336
TEXT 0 2208 Left 2 !+      CJO=2P VJ=750M M=330M FC=500M TT=5.771N
TEXT 0 2272 Left 2 !+      EG=1.11 XTI=3 KF=0 AF=1 )
TEXT 0 2336 Left 2 ; ============================== Voltages =================================
TEXT 0 2400 Left 2 ; ----- Input pulses
TEXT 0 2464 Left 2 ; Vi_num: The input voltage as pulse sequences
SYMBOL voltage 0 -448 R0
SYMATTR InstName Vi_001
SYMATTR Value PWL 0.00ns 0.000V 1.00ns 0.000V 2.00ns 0.000V 400.00ns 0.000V 401.00ns 0.000V
FLAG 0 -432 i_001
FLAG 0 -352 0
SYMBOL voltage 800 -448 R0
SYMATTR InstName Vi_002
SYMATTR Value PWL 0.00ns 0.000V 1.00ns 0.000V 2.00ns 0.000V 400.00ns 0.000V 401.00ns 0.000V
FLAG 800 -432 i_002
FLAG 800 -352 0
SYMBOL voltage 1600 -448 R0
SYMATTR InstName Vi_003
SYMATTR Value PWL 0.00ns 0.000V 1.00ns 0.000V 2.00ns 0.000V 400.00ns 0.000V 401.00ns 0.000V
FLAG 1600 -432 i_003
FLAG 1600 -352 0
SYMBOL voltage 2400 -448 R0
SYMATTR InstName Vi_004
SYMATTR Value PWL 0.00ns 0.000V 1.00ns 0.000V 2.00ns 0.000V 400.00ns 0.000V 401.00ns 0.000V
FLAG 2400 -432 i_004
FLAG 2400 -352 0
SYMBOL voltage 3200 -448 R0
SYMATTR InstName Vi_005
SYMATTR Value PWL 0.00ns 0.000V 1.00ns 0.000V 2.00ns 0.000V 400.00ns 0.000V 401.00ns 0.000V
FLAG 3200 -432 i_005
FLAG 3200 -352 0
SYMBOL voltage 4000 -448 R0
SYMATTR InstName Vi_006
SYMATTR Value PWL 0.00ns 0.000V 1.00ns 0.000V 2.00ns 0.000V 400.00ns 0.000V 401.00ns 0.000V
FLAG 4000 -432 i_006
FLAG 4000 -352 0
SYMBOL voltage 4800 -448 R0
SYMATTR InstName Vi_007
SYMATTR Value PWL 0.00ns 0.000V 1.00ns 0.000V 2.00ns 0.000V 400.00ns 0.000V 401.00ns 0.000V
FLAG 4800 -432 i_007
FLAG 4800 -352 0
SYMBOL voltage 5600 -448 R0
SYMATTR InstName Vi_008
SYMATTR Value PWL 0.00ns 0.000V 1.00ns 0.000V 2.00ns 0.000V 400.00ns 0.000V 401.00ns 0.000V
FLAG 5600 -432 i_008
FLAG 5600 -352 0
SYMBOL voltage 6400 -448 R0
SYMATTR InstName Vi_009
SYMATTR Value PWL 0.00ns 0.000V 1.00ns 0.000V 2.00ns 0.000V 400.00ns 0.000V 401.00ns 0.000V
FLAG 6400 -432 i_009
FLAG 6400 -352 0
SYMBOL voltage 7200 -448 R0
SYMATTR InstName Vi_010
SYMATTR Value PWL 0.00ns 0.000V 1.00ns 0.000V 2.00ns 0.000V 400.00ns 0.000V 401.00ns 0.000V
FLAG 7200 -432 i_010
FLAG 7200 -352 0
SYMBOL voltage 0 -1248 R0
SYMATTR InstName Vi_011
SYMATTR Value PWL 0.00ns 0.000V 1.00ns 0.000V 2.00ns 0.000V 400.00ns 0.000V 401.00ns 0.000V
FLAG 0 -1232 i_011
FLAG 0 -1152 0
SYMBOL voltage 800 -1248 R0
SYMATTR InstName Vi_012
SYMATTR Value PWL 0.00ns 0.000V 1.00ns 0.000V 2.00ns 0.000V 400.00ns 0.000V 401.00ns 0.000V
FLAG 800 -1232 i_012
FLAG 800 -1152 0
SYMBOL voltage 1600 -1248 R0
SYMATTR InstName Vi_013
SYMATTR Value PWL 0.00ns 0.000V 1.00ns 0.000V 2.00ns 0.000V 400.00ns 0.000V 401.00ns 0.000V
FLAG 1600 -1232 i_013
FLAG 1600 -1152 0
SYMBOL voltage 2400 -1248 R0
SYMATTR InstName Vi_014
SYMATTR Value PWL 0.00ns 0.000V 1.00ns 0.000V 2.00ns 0.000V 400.00ns 0.000V 401.00ns 0.000V
FLAG 2400 -1232 i_014
FLAG 2400 -1152 0
SYMBOL voltage 3200 -1248 R0
SYMATTR InstName Vi_015
SYMATTR Value PWL 0.00ns 0.000V 1.00ns 0.000V 2.00ns 0.000V 400.00ns 0.000V 401.00ns 0.000V
FLAG 3200 -1232 i_015
FLAG 3200 -1152 0
SYMBOL voltage 4000 -1248 R0
SYMATTR InstName Vi_016
SYMATTR Value PWL 0.00ns 0.000V 1.00ns 0.000V 2.00ns 0.000V 400.00ns 0.000V 401.00ns 0.000V
FLAG 4000 -1232 i_016
FLAG 4000 -1152 0
SYMBOL voltage 4800 -1248 R0
SYMATTR InstName Vi_017
SYMATTR Value PWL 0.00ns 0.000V 1.00ns 0.000V 2.00ns 0.000V 400.00ns 0.000V 401.00ns 0.000V
FLAG 4800 -1232 i_017
FLAG 4800 -1152 0
SYMBOL voltage 5600 -1248 R0
SYMATTR InstName Vi_018
SYMATTR Value PWL 0.00ns 0.000V 1.00ns 0.000V 2.00ns 0.000V 400.00ns 0.000V 401.00ns 0.000V
FLAG 5600 -1232 i_018
FLAG 5600 -1152 0
SYMBOL voltage 6400 -1248 R0
SYMATTR InstName Vi_019
SYMATTR Value PWL 0.00ns 0.000V 1.00ns 0.000V 2.00ns 0.000V 400.00ns 0.000V 401.00ns 0.000V
FLAG 6400 -1232 i_019
FLAG 6400 -1152 0
SYMBOL voltage 7200 -1248 R0
SYMATTR InstName Vi_020
SYMATTR Value PWL 0.00ns 0.000V 1.00ns 0.000V 2.00ns 0.000V 400.00ns 0.000V 401.00ns 0.000V
FLAG 7200 -1232 i_020
FLAG 7200 -1152 0
SYMBOL voltage 0 -2048 R0
SYMATTR InstName Vi_021
SYMATTR Value PWL 0.00ns 0.000V 1.00ns 0.000V 2.00ns 0.000V 400.00ns 0.000V 401.00ns 0.000V
FLAG 0 -2032 i_021
FLAG 0 -1952 0
SYMBOL voltage 800 -2048 R0
SYMATTR InstName Vi_022
SYMATTR Value PWL 0.00ns 0.000V 1.00ns 0.000V 2.00ns 0.000V 400.00ns 0.000V 401.00ns 0.000V
FLAG 800 -2032 i_022
FLAG 800 -1952 0
SYMBOL voltage 1600 -2048 R0
SYMATTR InstName Vi_023
SYMATTR Value PWL 0.00ns 0.000V 1.00ns 0.000V 2.00ns 0.200V 400.00ns 0.200V 401.00ns 0.000V
FLAG 1600 -2032 i_023
FLAG 1600 -1952 0
SYMBOL voltage 2400 -2048 R0
SYMATTR InstName Vi_024
SYMATTR Value PWL 0.00ns 0.000V 1.00ns 0.000V 2.00ns 0.000V 400.00ns 0.000V 401.00ns 0.000V
FLAG 2400 -2032 i_024
FLAG 2400 -1952 0
SYMBOL voltage 3200 -2048 R0
SYMATTR InstName Vi_025
SYMATTR Value PWL 0.00ns 0.000V 1.00ns 0.000V 2.00ns 0.000V 400.00ns 0.000V 401.00ns 0.000V
FLAG 3200 -2032 i_025
FLAG 3200 -1952 0
TEXT 0 2528 Left 2 ; Vb_num: The bias voltage as pulse sequences
SYMBOL voltage 4000 -2048 R0
SYMATTR InstName Vb_001
SYMATTR Value PWL 0.00ns 0.000V 1.00ns 0.000V 2.00ns 0.200V 400.00ns 0.200V 401.00ns 0.000V
FLAG 4000 -2032 b_001
FLAG 4000 -1952 0
SYMBOL voltage 4800 -2048 R0
SYMATTR InstName Vb_002
SYMATTR Value PWL 0.00ns 0.000V 11.00ns 0.000V 12.00ns 0.200V 410.00ns 0.200V 411.00ns 0.000V
FLAG 4800 -2032 b_002
FLAG 4800 -1952 0
SYMBOL voltage 5600 -2048 R0
SYMATTR InstName Ve
SYMATTR Value 3
FLAG 5600 -2032 Ve
FLAG 5600 -1952 0
SYMBOL voltage 6400 -2048 R0
SYMATTR InstName Vcc-
SYMATTR Value -5
FLAG 6400 -2032 Vcc-
FLAG 6400 -1952 0
SYMBOL voltage 7200 -2048 R0
SYMATTR InstName Vcc+
SYMATTR Value 5
FLAG 7200 -2032 Vcc+
FLAG 7200 -1952 0
TEXT 0 2592 Left 2 ; ============================ NN Parameters ==============================
TEXT 0 2656 Left 2 ; Parameters  (weights and bias) naming convention: "Rl_i_j+" where:
TEXT 0 2720 Left 2 ;   R: Always "R" to inform Xyce it is a resistance
TEXT 0 2784 Left 2 ;   l: layer name, "h" for the hidden and output layers and "b" for the biases.
TEXT 0 2848 Left 2 ;   i: index of the weight of a neuron  (start from 1)
TEXT 0 2912 Left 2 ;   j: index of the neuron  (start from 1)
TEXT 0 2976 Left 2 ;   +: parameter polarity, + or -
TEXT 0 3040 Left 2 ; ----------------------------- Layers -----------------------------
TEXT 0 3104 Left 2 ; ----- Weights
TEXT 0 3168 Left 2 ; Layer 001
TEXT 0 3232 Left 2 ; Neuron 1
SYMBOL res -16 -2848 R0
SYMATTR InstName Rh001_001_001+
SYMATTR Value 15000
FLAG 0 -2832 i_001
FLAG 0 -2752 tia_h_in_001_001+
SYMBOL res 784 -2848 R0
SYMATTR InstName Rh001_001_001-
SYMATTR Value 12488
FLAG 800 -2832 i_001
FLAG 800 -2752 tia_h_in_001_001-
SYMBOL res 1584 -2848 R0
SYMATTR InstName Rh001_002_001+
SYMATTR Value 15000
FLAG 1600 -2832 i_002
FLAG 1600 -2752 tia_h_in_001_001+
SYMBOL res 2384 -2848 R0
SYMATTR InstName Rh001_002_001-
SYMATTR Value 10890
FLAG 2400 -2832 i_002
FLAG 2400 -2752 tia_h_in_001_001-
SYMBOL res 3184 -2848 R0
SYMATTR InstName Rh001_003_001+
SYMATTR Value 15000
FLAG 3200 -2832 i_003
FLAG 3200 -2752 tia_h_in_001_001+
SYMBOL res 3984 -2848 R0
SYMATTR InstName Rh001_003_001-
SYMATTR Value 10897
FLAG 4000 -2832 i_003
FLAG 4000 -2752 tia_h_in_001_001-
SYMBOL res 4784 -2848 R0
SYMATTR InstName Rh001_004_001+
SYMATTR Value 15000
FLAG 4800 -2832 i_004
FLAG 4800 -2752 tia_h_in_001_001+
SYMBOL res 5584 -2848 R0
SYMATTR InstName Rh001_004_001-
SYMATTR Value 13122
FLAG 5600 -2832 i_004
FLAG 5600 -2752 tia_h_in_001_001-
SYMBOL res 6384 -2848 R0
SYMATTR InstName Rh001_005_001+
SYMATTR Value 15000
FLAG 6400 -2832 i_005
FLAG 6400 -2752 tia_h_in_001_001+
SYMBOL res 7184 -2848 R0
SYMATTR InstName Rh001_005_001-
SYMATTR Value 13804
FLAG 7200 -2832 i_005
FLAG 7200 -2752 tia_h_in_001_001-
SYMBOL res -16 -3648 R0
SYMATTR InstName Rh001_006_001+
SYMATTR Value 15000
FLAG 0 -3632 i_006
FLAG 0 -3552 tia_h_in_001_001+
SYMBOL res 784 -3648 R0
SYMATTR InstName Rh001_006_001-
SYMATTR Value 13176
FLAG 800 -3632 i_006
FLAG 800 -3552 tia_h_in_001_001-
SYMBOL res 1584 -3648 R0
SYMATTR InstName Rh001_007_001+
SYMATTR Value 15000
FLAG 1600 -3632 i_007
FLAG 1600 -3552 tia_h_in_001_001+
SYMBOL res 2384 -3648 R0
SYMATTR InstName Rh001_007_001-
SYMATTR Value 14611
FLAG 2400 -3632 i_007
FLAG 2400 -3552 tia_h_in_001_001-
SYMBOL res 3184 -3648 R0
SYMATTR InstName Rh001_008_001+
SYMATTR Value 15000
FLAG 3200 -3632 i_008
FLAG 3200 -3552 tia_h_in_001_001+
SYMBOL res 3984 -3648 R0
SYMATTR InstName Rh001_008_001-
SYMATTR Value 13908
FLAG 4000 -3632 i_008
FLAG 4000 -3552 tia_h_in_001_001-
SYMBOL res 4784 -3648 R0
SYMATTR InstName Rh001_009_001+
SYMATTR Value 15000
FLAG 4800 -3632 i_009
FLAG 4800 -3552 tia_h_in_001_001+
SYMBOL res 5584 -3648 R0
SYMATTR InstName Rh001_009_001-
SYMATTR Value 13680
FLAG 5600 -3632 i_009
FLAG 5600 -3552 tia_h_in_001_001-
SYMBOL res 6384 -3648 R0
SYMATTR InstName Rh001_010_001+
SYMATTR Value 15000
FLAG 6400 -3632 i_010
FLAG 6400 -3552 tia_h_in_001_001+
SYMBOL res 7184 -3648 R0
SYMATTR InstName Rh001_010_001-
SYMATTR Value 12903
FLAG 7200 -3632 i_010
FLAG 7200 -3552 tia_h_in_001_001-
SYMBOL res -16 -4448 R0
SYMATTR InstName Rh001_011_001+
SYMATTR Value 15000
FLAG 0 -4432 i_011
FLAG 0 -4352 tia_h_in_001_001+
SYMBOL res 784 -4448 R0
SYMATTR InstName Rh001_011_001-
SYMATTR Value 11045
FLAG 800 -4432 i_011
FLAG 800 -4352 tia_h_in_001_001-
SYMBOL res 1584 -4448 R0
SYMATTR InstName Rh001_012_001+
SYMATTR Value 15000
FLAG 1600 -4432 i_012
FLAG 1600 -4352 tia_h_in_001_001+
SYMBOL res 2384 -4448 R0
SYMATTR InstName Rh001_012_001-
SYMATTR Value 12559
FLAG 2400 -4432 i_012
FLAG 2400 -4352 tia_h_in_001_001-
SYMBOL res 3184 -4448 R0
SYMATTR InstName Rh001_013_001+
SYMATTR Value 15000
FLAG 3200 -4432 i_013
FLAG 3200 -4352 tia_h_in_001_001+
SYMBOL res 3984 -4448 R0
SYMATTR InstName Rh001_013_001-
SYMATTR Value 14041
FLAG 4000 -4432 i_013
FLAG 4000 -4352 tia_h_in_001_001-
SYMBOL res 4784 -4448 R0
SYMATTR InstName Rh001_014_001+
SYMATTR Value 15000
FLAG 4800 -4432 i_014
FLAG 4800 -4352 tia_h_in_001_001+
SYMBOL res 5584 -4448 R0
SYMATTR InstName Rh001_014_001-
SYMATTR Value 12246
FLAG 5600 -4432 i_014
FLAG 5600 -4352 tia_h_in_001_001-
SYMBOL res 6384 -4448 R0
SYMATTR InstName Rh001_015_001+
SYMATTR Value 15000
FLAG 6400 -4432 i_015
FLAG 6400 -4352 tia_h_in_001_001+
SYMBOL res 7184 -4448 R0
SYMATTR InstName Rh001_015_001-
SYMATTR Value 11312
FLAG 7200 -4432 i_015
FLAG 7200 -4352 tia_h_in_001_001-
SYMBOL res -16 -5248 R0
SYMATTR InstName Rh001_016_001+
SYMATTR Value 15000
FLAG 0 -5232 i_016
FLAG 0 -5152 tia_h_in_001_001+
SYMBOL res 784 -5248 R0
SYMATTR InstName Rh001_016_001-
SYMATTR Value 12751
FLAG 800 -5232 i_016
FLAG 800 -5152 tia_h_in_001_001-
SYMBOL res 1584 -5248 R0
SYMATTR InstName Rh001_017_001+
SYMATTR Value 15000
FLAG 1600 -5232 i_017
FLAG 1600 -5152 tia_h_in_001_001+
SYMBOL res 2384 -5248 R0
SYMATTR InstName Rh001_017_001-
SYMATTR Value 11724
FLAG 2400 -5232 i_017
FLAG 2400 -5152 tia_h_in_001_001-
SYMBOL res 3184 -5248 R0
SYMATTR InstName Rh001_018_001+
SYMATTR Value 15000
FLAG 3200 -5232 i_018
FLAG 3200 -5152 tia_h_in_001_001+
SYMBOL res 3984 -5248 R0
SYMATTR InstName Rh001_018_001-
SYMATTR Value 11368
FLAG 4000 -5232 i_018
FLAG 4000 -5152 tia_h_in_001_001-
SYMBOL res 4784 -5248 R0
SYMATTR InstName Rh001_019_001+
SYMATTR Value 15000
FLAG 4800 -5232 i_019
FLAG 4800 -5152 tia_h_in_001_001+
SYMBOL res 5584 -5248 R0
SYMATTR InstName Rh001_019_001-
SYMATTR Value 12228
FLAG 5600 -5232 i_019
FLAG 5600 -5152 tia_h_in_001_001-
SYMBOL res 6384 -5248 R0
SYMATTR InstName Rh001_020_001+
SYMATTR Value 15000
FLAG 6400 -5232 i_020
FLAG 6400 -5152 tia_h_in_001_001+
SYMBOL res 7184 -5248 R0
SYMATTR InstName Rh001_020_001-
SYMATTR Value 12546
FLAG 7200 -5232 i_020
FLAG 7200 -5152 tia_h_in_001_001-
SYMBOL res -16 -6048 R0
SYMATTR InstName Rh001_021_001+
SYMATTR Value 15000
FLAG 0 -6032 i_021
FLAG 0 -5952 tia_h_in_001_001+
SYMBOL res 784 -6048 R0
SYMATTR InstName Rh001_021_001-
SYMATTR Value 11168
FLAG 800 -6032 i_021
FLAG 800 -5952 tia_h_in_001_001-
SYMBOL res 1584 -6048 R0
SYMATTR InstName Rh001_022_001+
SYMATTR Value 15000
FLAG 1600 -6032 i_022
FLAG 1600 -5952 tia_h_in_001_001+
SYMBOL res 2384 -6048 R0
SYMATTR InstName Rh001_022_001-
SYMATTR Value 11641
FLAG 2400 -6032 i_022
FLAG 2400 -5952 tia_h_in_001_001-
SYMBOL res 3184 -6048 R0
SYMATTR InstName Rh001_023_001+
SYMATTR Value 15000
FLAG 3200 -6032 i_023
FLAG 3200 -5952 tia_h_in_001_001+
SYMBOL res 3984 -6048 R0
SYMATTR InstName Rh001_023_001-
SYMATTR Value 12108
FLAG 4000 -6032 i_023
FLAG 4000 -5952 tia_h_in_001_001-
SYMBOL res 4784 -6048 R0
SYMATTR InstName Rh001_024_001+
SYMATTR Value 15000
FLAG 4800 -6032 i_024
FLAG 4800 -5952 tia_h_in_001_001+
SYMBOL res 5584 -6048 R0
SYMATTR InstName Rh001_024_001-
SYMATTR Value 11903
FLAG 5600 -6032 i_024
FLAG 5600 -5952 tia_h_in_001_001-
SYMBOL res 6384 -6048 R0
SYMATTR InstName Rh001_025_001+
SYMATTR Value 15000
FLAG 6400 -6032 i_025
FLAG 6400 -5952 tia_h_in_001_001+
SYMBOL res 7184 -6048 R0
SYMATTR InstName Rh001_025_001-
SYMATTR Value 12139
FLAG 7200 -6032 i_025
FLAG 7200 -5952 tia_h_in_001_001-
TEXT 0 3296 Left 2 ; Neuron 2
SYMBOL res -16 -6848 R0
SYMATTR InstName Rh001_001_002+
SYMATTR Value 15000
FLAG 0 -6832 i_001
FLAG 0 -6752 tia_h_in_001_002+
SYMBOL res 784 -6848 R0
SYMATTR InstName Rh001_001_002-
SYMATTR Value 9078
FLAG 800 -6832 i_001
FLAG 800 -6752 tia_h_in_001_002-
SYMBOL res 1584 -6848 R0
SYMATTR InstName Rh001_002_002+
SYMATTR Value 15000
FLAG 1600 -6832 i_002
FLAG 1600 -6752 tia_h_in_001_002+
SYMBOL res 2384 -6848 R0
SYMATTR InstName Rh001_002_002-
SYMATTR Value 9589
FLAG 2400 -6832 i_002
FLAG 2400 -6752 tia_h_in_001_002-
SYMBOL res 3184 -6848 R0
SYMATTR InstName Rh001_003_002+
SYMATTR Value 15000
FLAG 3200 -6832 i_003
FLAG 3200 -6752 tia_h_in_001_002+
SYMBOL res 3984 -6848 R0
SYMATTR InstName Rh001_003_002-
SYMATTR Value 9539
FLAG 4000 -6832 i_003
FLAG 4000 -6752 tia_h_in_001_002-
SYMBOL res 4784 -6848 R0
SYMATTR InstName Rh001_004_002+
SYMATTR Value 15000
FLAG 4800 -6832 i_004
FLAG 4800 -6752 tia_h_in_001_002+
SYMBOL res 5584 -6848 R0
SYMATTR InstName Rh001_004_002-
SYMATTR Value 9676
FLAG 5600 -6832 i_004
FLAG 5600 -6752 tia_h_in_001_002-
SYMBOL res 6384 -6848 R0
SYMATTR InstName Rh001_005_002+
SYMATTR Value 15000
FLAG 6400 -6832 i_005
FLAG 6400 -6752 tia_h_in_001_002+
SYMBOL res 7184 -6848 R0
SYMATTR InstName Rh001_005_002-
SYMATTR Value 9301
FLAG 7200 -6832 i_005
FLAG 7200 -6752 tia_h_in_001_002-
SYMBOL res -16 -7648 R0
SYMATTR InstName Rh001_006_002+
SYMATTR Value 15000
FLAG 0 -7632 i_006
FLAG 0 -7552 tia_h_in_001_002+
SYMBOL res 784 -7648 R0
SYMATTR InstName Rh001_006_002-
SYMATTR Value 9436
FLAG 800 -7632 i_006
FLAG 800 -7552 tia_h_in_001_002-
SYMBOL res 1584 -7648 R0
SYMATTR InstName Rh001_007_002+
SYMATTR Value 15000
FLAG 1600 -7632 i_007
FLAG 1600 -7552 tia_h_in_001_002+
SYMBOL res 2384 -7648 R0
SYMATTR InstName Rh001_007_002-
SYMATTR Value 9505
FLAG 2400 -7632 i_007
FLAG 2400 -7552 tia_h_in_001_002-
SYMBOL res 3184 -7648 R0
SYMATTR InstName Rh001_008_002+
SYMATTR Value 15000
FLAG 3200 -7632 i_008
FLAG 3200 -7552 tia_h_in_001_002+
SYMBOL res 3984 -7648 R0
SYMATTR InstName Rh001_008_002-
SYMATTR Value 9602
FLAG 4000 -7632 i_008
FLAG 4000 -7552 tia_h_in_001_002-
SYMBOL res 4784 -7648 R0
SYMATTR InstName Rh001_009_002+
SYMATTR Value 15000
FLAG 4800 -7632 i_009
FLAG 4800 -7552 tia_h_in_001_002+
SYMBOL res 5584 -7648 R0
SYMATTR InstName Rh001_009_002-
SYMATTR Value 10011
FLAG 5600 -7632 i_009
FLAG 5600 -7552 tia_h_in_001_002-
SYMBOL res 6384 -7648 R0
SYMATTR InstName Rh001_010_002+
SYMATTR Value 15000
FLAG 6400 -7632 i_010
FLAG 6400 -7552 tia_h_in_001_002+
SYMBOL res 7184 -7648 R0
SYMATTR InstName Rh001_010_002-
SYMATTR Value 9476
FLAG 7200 -7632 i_010
FLAG 7200 -7552 tia_h_in_001_002-
SYMBOL res -16 -8448 R0
SYMATTR InstName Rh001_011_002+
SYMATTR Value 15000
FLAG 0 -8432 i_011
FLAG 0 -8352 tia_h_in_001_002+
SYMBOL res 784 -8448 R0
SYMATTR InstName Rh001_011_002-
SYMATTR Value 9372
FLAG 800 -8432 i_011
FLAG 800 -8352 tia_h_in_001_002-
SYMBOL res 1584 -8448 R0
SYMATTR InstName Rh001_012_002+
SYMATTR Value 15000
FLAG 1600 -8432 i_012
FLAG 1600 -8352 tia_h_in_001_002+
SYMBOL res 2384 -8448 R0
SYMATTR InstName Rh001_012_002-
SYMATTR Value 9462
FLAG 2400 -8432 i_012
FLAG 2400 -8352 tia_h_in_001_002-
SYMBOL res 3184 -8448 R0
SYMATTR InstName Rh001_013_002+
SYMATTR Value 15000
FLAG 3200 -8432 i_013
FLAG 3200 -8352 tia_h_in_001_002+
SYMBOL res 3984 -8448 R0
SYMATTR InstName Rh001_013_002-
SYMATTR Value 9497
FLAG 4000 -8432 i_013
FLAG 4000 -8352 tia_h_in_001_002-
SYMBOL res 4784 -8448 R0
SYMATTR InstName Rh001_014_002+
SYMATTR Value 15000
FLAG 4800 -8432 i_014
FLAG 4800 -8352 tia_h_in_001_002+
SYMBOL res 5584 -8448 R0
SYMATTR InstName Rh001_014_002-
SYMATTR Value 9618
FLAG 5600 -8432 i_014
FLAG 5600 -8352 tia_h_in_001_002-
SYMBOL res 6384 -8448 R0
SYMATTR InstName Rh001_015_002+
SYMATTR Value 15000
FLAG 6400 -8432 i_015
FLAG 6400 -8352 tia_h_in_001_002+
SYMBOL res 7184 -8448 R0
SYMATTR InstName Rh001_015_002-
SYMATTR Value 9797
FLAG 7200 -8432 i_015
FLAG 7200 -8352 tia_h_in_001_002-
SYMBOL res -16 -9248 R0
SYMATTR InstName Rh001_016_002+
SYMATTR Value 15000
FLAG 0 -9232 i_016
FLAG 0 -9152 tia_h_in_001_002+
SYMBOL res 784 -9248 R0
SYMATTR InstName Rh001_016_002-
SYMATTR Value 9665
FLAG 800 -9232 i_016
FLAG 800 -9152 tia_h_in_001_002-
SYMBOL res 1584 -9248 R0
SYMATTR InstName Rh001_017_002+
SYMATTR Value 15000
FLAG 1600 -9232 i_017
FLAG 1600 -9152 tia_h_in_001_002+
SYMBOL res 2384 -9248 R0
SYMATTR InstName Rh001_017_002-
SYMATTR Value 9408
FLAG 2400 -9232 i_017
FLAG 2400 -9152 tia_h_in_001_002-
SYMBOL res 3184 -9248 R0
SYMATTR InstName Rh001_018_002+
SYMATTR Value 15000
FLAG 3200 -9232 i_018
FLAG 3200 -9152 tia_h_in_001_002+
SYMBOL res 3984 -9248 R0
SYMATTR InstName Rh001_018_002-
SYMATTR Value 9533
FLAG 4000 -9232 i_018
FLAG 4000 -9152 tia_h_in_001_002-
SYMBOL res 4784 -9248 R0
SYMATTR InstName Rh001_019_002+
SYMATTR Value 15000
FLAG 4800 -9232 i_019
FLAG 4800 -9152 tia_h_in_001_002+
SYMBOL res 5584 -9248 R0
SYMATTR InstName Rh001_019_002-
SYMATTR Value 9452
FLAG 5600 -9232 i_019
FLAG 5600 -9152 tia_h_in_001_002-
SYMBOL res 6384 -9248 R0
SYMATTR InstName Rh001_020_002+
SYMATTR Value 15000
FLAG 6400 -9232 i_020
FLAG 6400 -9152 tia_h_in_001_002+
SYMBOL res 7184 -9248 R0
SYMATTR InstName Rh001_020_002-
SYMATTR Value 9352
FLAG 7200 -9232 i_020
FLAG 7200 -9152 tia_h_in_001_002-
SYMBOL res -16 -10048 R0
SYMATTR InstName Rh001_021_002+
SYMATTR Value 15000
FLAG 0 -10032 i_021
FLAG 0 -9952 tia_h_in_001_002+
SYMBOL res 784 -10048 R0
SYMATTR InstName Rh001_021_002-
SYMATTR Value 9297
FLAG 800 -10032 i_021
FLAG 800 -9952 tia_h_in_001_002-
SYMBOL res 1584 -10048 R0
SYMATTR InstName Rh001_022_002+
SYMATTR Value 15000
FLAG 1600 -10032 i_022
FLAG 1600 -9952 tia_h_in_001_002+
SYMBOL res 2384 -10048 R0
SYMATTR InstName Rh001_022_002-
SYMATTR Value 9434
FLAG 2400 -10032 i_022
FLAG 2400 -9952 tia_h_in_001_002-
SYMBOL res 3184 -10048 R0
SYMATTR InstName Rh001_023_002+
SYMATTR Value 15000
FLAG 3200 -10032 i_023
FLAG 3200 -9952 tia_h_in_001_002+
SYMBOL res 3984 -10048 R0
SYMATTR InstName Rh001_023_002-
SYMATTR Value 9238
FLAG 4000 -10032 i_023
FLAG 4000 -9952 tia_h_in_001_002-
SYMBOL res 4784 -10048 R0
SYMATTR InstName Rh001_024_002+
SYMATTR Value 15000
FLAG 4800 -10032 i_024
FLAG 4800 -9952 tia_h_in_001_002+
SYMBOL res 5584 -10048 R0
SYMATTR InstName Rh001_024_002-
SYMATTR Value 9216
FLAG 5600 -10032 i_024
FLAG 5600 -9952 tia_h_in_001_002-
SYMBOL res 6384 -10048 R0
SYMATTR InstName Rh001_025_002+
SYMATTR Value 15000
FLAG 6400 -10032 i_025
FLAG 6400 -9952 tia_h_in_001_002+
SYMBOL res 7184 -10048 R0
SYMATTR InstName Rh001_025_002-
SYMATTR Value 8930
FLAG 7200 -10032 i_025
FLAG 7200 -9952 tia_h_in_001_002-
TEXT 0 3360 Left 2 ; Neuron 3
SYMBOL res -16 -10848 R0
SYMATTR InstName Rh001_001_003+
SYMATTR Value 15000
FLAG 0 -10832 i_001
FLAG 0 -10752 tia_h_in_001_003+
SYMBOL res 784 -10848 R0
SYMATTR InstName Rh001_001_003-
SYMATTR Value 9425
FLAG 800 -10832 i_001
FLAG 800 -10752 tia_h_in_001_003-
SYMBOL res 1584 -10848 R0
SYMATTR InstName Rh001_002_003+
SYMATTR Value 15000
FLAG 1600 -10832 i_002
FLAG 1600 -10752 tia_h_in_001_003+
SYMBOL res 2384 -10848 R0
SYMATTR InstName Rh001_002_003-
SYMATTR Value 10070
FLAG 2400 -10832 i_002
FLAG 2400 -10752 tia_h_in_001_003-
SYMBOL res 3184 -10848 R0
SYMATTR InstName Rh001_003_003+
SYMATTR Value 15000
FLAG 3200 -10832 i_003
FLAG 3200 -10752 tia_h_in_001_003+
SYMBOL res 3984 -10848 R0
SYMATTR InstName Rh001_003_003-
SYMATTR Value 10130
FLAG 4000 -10832 i_003
FLAG 4000 -10752 tia_h_in_001_003-
SYMBOL res 4784 -10848 R0
SYMATTR InstName Rh001_004_003+
SYMATTR Value 15000
FLAG 4800 -10832 i_004
FLAG 4800 -10752 tia_h_in_001_003+
SYMBOL res 5584 -10848 R0
SYMATTR InstName Rh001_004_003-
SYMATTR Value 10130
FLAG 5600 -10832 i_004
FLAG 5600 -10752 tia_h_in_001_003-
SYMBOL res 6384 -10848 R0
SYMATTR InstName Rh001_005_003+
SYMATTR Value 15000
FLAG 6400 -10832 i_005
FLAG 6400 -10752 tia_h_in_001_003+
SYMBOL res 7184 -10848 R0
SYMATTR InstName Rh001_005_003-
SYMATTR Value 10221
FLAG 7200 -10832 i_005
FLAG 7200 -10752 tia_h_in_001_003-
SYMBOL res -16 -11648 R0
SYMATTR InstName Rh001_006_003+
SYMATTR Value 15000
FLAG 0 -11632 i_006
FLAG 0 -11552 tia_h_in_001_003+
SYMBOL res 784 -11648 R0
SYMATTR InstName Rh001_006_003-
SYMATTR Value 9853
FLAG 800 -11632 i_006
FLAG 800 -11552 tia_h_in_001_003-
SYMBOL res 1584 -11648 R0
SYMATTR InstName Rh001_007_003+
SYMATTR Value 15000
FLAG 1600 -11632 i_007
FLAG 1600 -11552 tia_h_in_001_003+
SYMBOL res 2384 -11648 R0
SYMATTR InstName Rh001_007_003-
SYMATTR Value 10038
FLAG 2400 -11632 i_007
FLAG 2400 -11552 tia_h_in_001_003-
SYMBOL res 3184 -11648 R0
SYMATTR InstName Rh001_008_003+
SYMATTR Value 15000
FLAG 3200 -11632 i_008
FLAG 3200 -11552 tia_h_in_001_003+
SYMBOL res 3984 -11648 R0
SYMATTR InstName Rh001_008_003-
SYMATTR Value 10175
FLAG 4000 -11632 i_008
FLAG 4000 -11552 tia_h_in_001_003-
SYMBOL res 4784 -11648 R0
SYMATTR InstName Rh001_009_003+
SYMATTR Value 15000
FLAG 4800 -11632 i_009
FLAG 4800 -11552 tia_h_in_001_003+
SYMBOL res 5584 -11648 R0
SYMATTR InstName Rh001_009_003-
SYMATTR Value 10304
FLAG 5600 -11632 i_009
FLAG 5600 -11552 tia_h_in_001_003-
SYMBOL res 6384 -11648 R0
SYMATTR InstName Rh001_010_003+
SYMATTR Value 15000
FLAG 6400 -11632 i_010
FLAG 6400 -11552 tia_h_in_001_003+
SYMBOL res 7184 -11648 R0
SYMATTR InstName Rh001_010_003-
SYMATTR Value 10291
FLAG 7200 -11632 i_010
FLAG 7200 -11552 tia_h_in_001_003-
SYMBOL res -16 -12448 R0
SYMATTR InstName Rh001_011_003+
SYMATTR Value 15000
FLAG 0 -12432 i_011
FLAG 0 -12352 tia_h_in_001_003+
SYMBOL res 784 -12448 R0
SYMATTR InstName Rh001_011_003-
SYMATTR Value 10506
FLAG 800 -12432 i_011
FLAG 800 -12352 tia_h_in_001_003-
SYMBOL res 1584 -12448 R0
SYMATTR InstName Rh001_012_003+
SYMATTR Value 15000
FLAG 1600 -12432 i_012
FLAG 1600 -12352 tia_h_in_001_003+
SYMBOL res 2384 -12448 R0
SYMATTR InstName Rh001_012_003-
SYMATTR Value 10234
FLAG 2400 -12432 i_012
FLAG 2400 -12352 tia_h_in_001_003-
SYMBOL res 3184 -12448 R0
SYMATTR InstName Rh001_013_003+
SYMATTR Value 15000
FLAG 3200 -12432 i_013
FLAG 3200 -12352 tia_h_in_001_003+
SYMBOL res 3984 -12448 R0
SYMATTR InstName Rh001_013_003-
SYMATTR Value 10558
FLAG 4000 -12432 i_013
FLAG 4000 -12352 tia_h_in_001_003-
SYMBOL res 4784 -12448 R0
SYMATTR InstName Rh001_014_003+
SYMATTR Value 15000
FLAG 4800 -12432 i_014
FLAG 4800 -12352 tia_h_in_001_003+
SYMBOL res 5584 -12448 R0
SYMATTR InstName Rh001_014_003-
SYMATTR Value 10156
FLAG 5600 -12432 i_014
FLAG 5600 -12352 tia_h_in_001_003-
SYMBOL res 6384 -12448 R0
SYMATTR InstName Rh001_015_003+
SYMATTR Value 15000
FLAG 6400 -12432 i_015
FLAG 6400 -12352 tia_h_in_001_003+
SYMBOL res 7184 -12448 R0
SYMATTR InstName Rh001_015_003-
SYMATTR Value 10194
FLAG 7200 -12432 i_015
FLAG 7200 -12352 tia_h_in_001_003-
SYMBOL res -16 -13248 R0
SYMATTR InstName Rh001_016_003+
SYMATTR Value 15000
FLAG 0 -13232 i_016
FLAG 0 -13152 tia_h_in_001_003+
SYMBOL res 784 -13248 R0
SYMATTR InstName Rh001_016_003-
SYMATTR Value 10311
FLAG 800 -13232 i_016
FLAG 800 -13152 tia_h_in_001_003-
SYMBOL res 1584 -13248 R0
SYMATTR InstName Rh001_017_003+
SYMATTR Value 15000
FLAG 1600 -13232 i_017
FLAG 1600 -13152 tia_h_in_001_003+
SYMBOL res 2384 -13248 R0
SYMATTR InstName Rh001_017_003-
SYMATTR Value 10608
FLAG 2400 -13232 i_017
FLAG 2400 -13152 tia_h_in_001_003-
SYMBOL res 3184 -13248 R0
SYMATTR InstName Rh001_018_003+
SYMATTR Value 15000
FLAG 3200 -13232 i_018
FLAG 3200 -13152 tia_h_in_001_003+
SYMBOL res 3984 -13248 R0
SYMATTR InstName Rh001_018_003-
SYMATTR Value 10280
FLAG 4000 -13232 i_018
FLAG 4000 -13152 tia_h_in_001_003-
SYMBOL res 4784 -13248 R0
SYMATTR InstName Rh001_019_003+
SYMATTR Value 15000
FLAG 4800 -13232 i_019
FLAG 4800 -13152 tia_h_in_001_003+
SYMBOL res 5584 -13248 R0
SYMATTR InstName Rh001_019_003-
SYMATTR Value 10236
FLAG 5600 -13232 i_019
FLAG 5600 -13152 tia_h_in_001_003-
SYMBOL res 6384 -13248 R0
SYMATTR InstName Rh001_020_003+
SYMATTR Value 15000
FLAG 6400 -13232 i_020
FLAG 6400 -13152 tia_h_in_001_003+
SYMBOL res 7184 -13248 R0
SYMATTR InstName Rh001_020_003-
SYMATTR Value 10059
FLAG 7200 -13232 i_020
FLAG 7200 -13152 tia_h_in_001_003-
SYMBOL res -16 -14048 R0
SYMATTR InstName Rh001_021_003+
SYMATTR Value 15000
FLAG 0 -14032 i_021
FLAG 0 -13952 tia_h_in_001_003+
SYMBOL res 784 -14048 R0
SYMATTR InstName Rh001_021_003-
SYMATTR Value 9911
FLAG 800 -14032 i_021
FLAG 800 -13952 tia_h_in_001_003-
SYMBOL res 1584 -14048 R0
SYMATTR InstName Rh001_022_003+
SYMATTR Value 15000
FLAG 1600 -14032 i_022
FLAG 1600 -13952 tia_h_in_001_003+
SYMBOL res 2384 -14048 R0
SYMATTR InstName Rh001_022_003-
SYMATTR Value 9952
FLAG 2400 -14032 i_022
FLAG 2400 -13952 tia_h_in_001_003-
SYMBOL res 3184 -14048 R0
SYMATTR InstName Rh001_023_003+
SYMATTR Value 15000
FLAG 3200 -14032 i_023
FLAG 3200 -13952 tia_h_in_001_003+
SYMBOL res 3984 -14048 R0
SYMATTR InstName Rh001_023_003-
SYMATTR Value 10227
FLAG 4000 -14032 i_023
FLAG 4000 -13952 tia_h_in_001_003-
SYMBOL res 4784 -14048 R0
SYMATTR InstName Rh001_024_003+
SYMATTR Value 15000
FLAG 4800 -14032 i_024
FLAG 4800 -13952 tia_h_in_001_003+
SYMBOL res 5584 -14048 R0
SYMATTR InstName Rh001_024_003-
SYMATTR Value 10168
FLAG 5600 -14032 i_024
FLAG 5600 -13952 tia_h_in_001_003-
SYMBOL res 6384 -14048 R0
SYMATTR InstName Rh001_025_003+
SYMATTR Value 15000
FLAG 6400 -14032 i_025
FLAG 6400 -13952 tia_h_in_001_003+
SYMBOL res 7184 -14048 R0
SYMATTR InstName Rh001_025_003-
SYMATTR Value 9709
FLAG 7200 -14032 i_025
FLAG 7200 -13952 tia_h_in_001_003-
TEXT 0 3424 Left 2 ; Neuron 4
SYMBOL res -16 -14848 R0
SYMATTR InstName Rh001_001_004+
SYMATTR Value 13457
FLAG 0 -14832 i_001
FLAG 0 -14752 tia_h_in_001_004+
SYMBOL res 784 -14848 R0
SYMATTR InstName Rh001_001_004-
SYMATTR Value 15000
FLAG 800 -14832 i_001
FLAG 800 -14752 tia_h_in_001_004-
SYMBOL res 1584 -14848 R0
SYMATTR InstName Rh001_002_004+
SYMATTR Value 15000
FLAG 1600 -14832 i_002
FLAG 1600 -14752 tia_h_in_001_004+
SYMBOL res 2384 -14848 R0
SYMATTR InstName Rh001_002_004-
SYMATTR Value 12997
FLAG 2400 -14832 i_002
FLAG 2400 -14752 tia_h_in_001_004-
SYMBOL res 3184 -14848 R0
SYMATTR InstName Rh001_003_004+
SYMATTR Value 15000
FLAG 3200 -14832 i_003
FLAG 3200 -14752 tia_h_in_001_004+
SYMBOL res 3984 -14848 R0
SYMATTR InstName Rh001_003_004-
SYMATTR Value 12632