Version 4
SHEET 1 2200 680
WIRE 400 64 -80 64
WIRE 848 64 400 64
WIRE -80 80 -80 64
WIRE 848 96 848 64
WIRE 912 144 896 144
WIRE 912 192 896 192
WIRE -80 368 -80 160
WIRE 848 368 848 240
WIRE 848 368 -80 368
WIRE 848 384 848 368
FLAG 848 384 0
FLAG 400 64 VDD
FLAG 912 144 Vbiasp
IOPIN 912 144 Out
FLAG 912 192 Vbiasn
IOPIN 912 192 Out
SYMBOL voltage -80 64 R0
WINDOW 123 0 0 Left 0
WINDOW 39 0 0 Left 0
SYMATTR InstName V1
SYMATTR Value 1.8
SYMBOL BiasCircuit 832 176 R0
SYMATTR InstName X1
TEXT -80 24 Left 0 !.include "C:\\Users\\Hussein\\UDeM\\OneDrive - USherbrooke\\circuits\\XYCE\\simulations\\ActivationFunction\\Sigmoid4_HA\\LTspice-cli-master\\LTspice-cli-master\\test\\components\\180nm_bulk.txt"
TEXT -114 408 Left 2 !*.dc V4 -1.8 1.8
TEXT -116 428 Left 2 !.tran 0 {simtime} 0 10n
TEXT -120 456 Left 2 !.param simtime=100n
