Version 4
SHEET 1 1164 680
WIRE 112 96 -16 96
WIRE 272 96 240 96
WIRE 320 96 272 96
WIRE -16 176 -16 96
WIRE 48 176 -16 176
WIRE 112 176 48 176
WIRE 272 176 240 176
WIRE 320 176 272 176
WIRE 496 176 464 176
WIRE 528 176 496 176
WIRE -16 192 -16 176
WIRE -16 304 -16 272
FLAG -16 304 0
FLAG 272 176 ot
FLAG 48 176 in
FLAG 496 176 out
FLAG 272 96 old
SYMBOL RNN_Sigmoid3_HA 176 176 R0
SYMATTR InstName X1
SYMBOL voltage -16 176 R0
WINDOW 3 25 70 Left 0
WINDOW 123 0 0 Left 0
WINDOW 39 0 0 Left 0
SYMATTR Value PWL(0 {lLimit} {simtime} {uLimit})
SYMATTR InstName V1
SYMBOL crossbar 560 176 R0
SYMATTR InstName X2
SYMBOL sourceFollower 384 176 R0
SYMATTR InstName X3
SYMBOL RNN_Sigmoid3_HA 176 96 R0
SYMATTR InstName X4
SYMBOL crossbar 352 96 R0
SYMATTR InstName X5
TEXT 32 304 Left 0 !.param simtime=10u lLimit=-2 uLimit=2 Vn=--0.32 loadr=46K C=10p load=15000
TEXT 32 320 Left 0 !.tran 0 {simtime}
TEXT 24 288 Left 0 !*.include "C:\\Users\\assh2802\\OneDrive - USherbrooke\\circuits\\XYCE\\netlist\\models\\180nm_bulk.txt"
TEXT 32 272 Left 0 !.include "C:\\Users\\Hussein\\UDeM\\OneDrive - USherbrooke\\circuits\\XYCE\\netlist\\models\\180nm_bulk.txt"
