Version 4
SHEET 1 2360 680
WIRE 128 96 0 96
WIRE 0 112 0 96
WIRE 128 208 128 96
WIRE 64 240 48 240
WIRE 64 272 48 272
WIRE 256 288 208 288
WIRE 432 304 384 304
WIRE 608 304 576 304
WIRE 256 320 224 320
WIRE 48 336 -32 336
WIRE 64 336 48 336
WIRE -32 352 -32 336
WIRE 224 368 224 320
WIRE 128 384 128 368
WIRE 48 464 48 336
WIRE 224 464 224 448
WIRE 224 464 48 464
FLAG 48 272 tia_h_in_+
IOPIN 48 272 In
FLAG 48 240 tia_h_in_-
IOPIN 48 240 In
FLAG 608 304 sum_activ_out
IOPIN 608 304 Out
FLAG 0 192 0
FLAG 128 384 0
FLAG -32 432 0
FLAG 320 416 0
SYMBOL voltage 0 96 R0
WINDOW 123 0 0 Left 0
WINDOW 39 0 0 Left 0
SYMATTR InstName V1
SYMATTR Value 1.8
SYMBOL CBPlusSubtractor 128 288 R0
SYMATTR InstName X2
SYMBOL voltage -32 336 R0
WINDOW 123 0 0 Left 0
WINDOW 39 0 0 Left 0
SYMATTR InstName V2
SYMATTR Value 0.75
SYMBOL sourceFollowerOTA2 496 304 R0
SYMATTR InstName X3
SYMBOL RNN_Sigmoid5_HA 320 304 R0
SYMATTR InstName X1
SYMBOL voltage 320 320 R0
WINDOW 123 0 0 Left 0
WINDOW 39 0 0 Left 0
SYMATTR InstName V3
SYMATTR Value 0.65
SYMBOL voltage 224 352 R0
WINDOW 123 0 0 Left 0
WINDOW 39 0 0 Left 0
SYMATTR InstName V4
SYMATTR Value 0.3
